<?xml version="1.0" encoding="UTF-8"?>

<!-- generated on Thu Jun 15 06:56:17 2023 by Eclipse SUMO polyconvert Version 1.8.0
-->

<configuration xmlns:xsi="http://www.w3.org/2001/XMLSchema-instance" xsi:noNamespaceSchemaLocation="http://sumo.dlr.de/xsd/polyconvertConfiguration.xsd">

    <input>
        <net-file value="istanbul-v1.net.xml"/>
        <osm-files value="./istanbul-v1_bbox.osm.xml"/>
        <osm.keep-full-type value="true"/>
        <type-file value="/usr/local/share/sumo/data/typemap/osmPolyconvert.typ.xml"/>
    </input>

    <output>
        <output-file value="istanbul-v1.poly.xml"/>
    </output>

    <report>
        <verbose value="true"/>
    </report>

</configuration>
