<?xml version="1.0" encoding="UTF-8"?>

<!-- generated on Thu Aug  3 23:00:13 2023 by Eclipse SUMO sumo Version 1.8.0
-->

<configuration xmlns:xsi="http://www.w3.org/2001/XMLSchema-instance" xsi:noNamespaceSchemaLocation="http://sumo.dlr.de/xsd/sumoConfiguration.xsd">

    <input>
        <net-file value="istanbul-v1.net.xml"/>
        <!-- <route-files value="istanbul-v1_pt.rou.xml,random_traffic_from_edges.trips.xml,random_traffic_to_edges.trips.xml,traffic_flow.trips.xml"/> -->

        <route-files value="istanbul-v1_pt.rou.xml,random_traffic_from_edges.trips.xml,random_traffic_to_edges.trips.xml,traffic_flow.trips.xml"/>

        <additional-files value="istanbul-v1.poly.xml,istanbul-v1_stops.add.xml"/>
    </input>

    <time>
      <step-length value="0.1"/>
    </time>

    <processing>
        <extrapolate-departpos value="true"/>
        <ignore-junction-blocker value="15"/>
        <collision.mingap-factor value="0.1"/>
        <random-depart-offset value="0.001"/>
        <!-- <default.action-step-length value="0.1"/> // eq step-length -->
    </processing>

    <routing>
        <weights.priority-factor value="2"/>

        <!-- <device.rerouting.probability value="0.3"/> -->
        <!-- <device.rerouting.period value="180"/> -->
        <!-- <device.rerouting.pre-period value="180"/> -->

        <device.rerouting.probability value="0.5"/>
        <device.rerouting.period value="120"/>
        <device.rerouting.pre-period value="120"/>

        <!-- <device.rerouting.probability value="0.5"/> -->
        <!-- <device.rerouting.period value="30"/> -->
    </routing>

    <report>
        <verbose value="true"/>
        <duration-log.statistics value="true"/>
        <no-step-log value="true"/>
    </report>

    <random_number>
      <random value="false"/>
      <seed value="0"/>
    </random_number>

</configuration>
