<?xml version="1.0" encoding="UTF-8"?>

<!-- generated on 2023-08-07 00:44:41.394052 by randomTrips4.py UNKNOWN
<configuration>
    <end value="4800"/>
    <net-file value="/home/user/sumo-map/istanbul-v1/istanbul-v1.net.xml"/>
    <period value="1.0"/>
    <random-arrivalpos value="True"/>
    <random-departpos value="True"/>
    <remove-loops value="True"/>
    <output-trip-file value="/home/user/sumo-map/istanbul-v1/random_traffic_to_edges.trips.xml"/>
    <validate value="True"/>
</configuration>
-->

<!-- generated on Mon Aug  7 00:44:39 2023 by Eclipse SUMO duarouter Version 1.8.0
<configuration xmlns:xsi="http://www.w3.org/2001/XMLSchema-instance" xsi:noNamespaceSchemaLocation="http://sumo.dlr.de/xsd/duarouterConfiguration.xsd">

    <input>
        <net-file value="/home/user/sumo-map/istanbul-v1/istanbul-v1.net.xml"/>
        <route-files value="/home/user/sumo-map/istanbul-v1/random_traffic_to_edges.trips.xml"/>
    </input>

    <output>
        <output-file value="/home/user/sumo-map/istanbul-v1/random_traffic_to_edges.trips.xml.tmp"/>
        <alternatives-output value="NUL"/>
        <write-trips value="true"/>
    </output>

    <processing>
        <remove-loops value="true"/>
    </processing>

    <time>
        <begin value="0"/>
        <end value="4800"/>
    </time>

    <report>
        <no-warnings value="true"/>
        <ignore-errors value="true"/>
        <no-step-log value="true"/>
    </report>

</configuration>
-->

<routes xmlns:xsi="http://www.w3.org/2001/XMLSchema-instance" xsi:noNamespaceSchemaLocation="http://sumo.dlr.de/xsd/routes_file.xsd">
    <trip id="300001" depart="1.00" departPos="183.26" arrivalPos="7.74" from="37278621#0" to="83477315"/>
    <trip id="300002" depart="2.00" departPos="8.35" arrivalPos="284.83" from="228362604#0" to="158452644#1"/>
    <trip id="300003" depart="3.00" departPos="15.59" arrivalPos="307.14" from="-183423843#1" to="158452644#1"/>
    <trip id="300004" depart="4.00" departPos="56.85" arrivalPos="0.59" from="1064645867" to="329581449#3"/>
    <trip id="300005" depart="5.00" departPos="33.24" arrivalPos="13.84" from="485312346#3" to="83477315"/>
    <trip id="300006" depart="6.00" departPos="6.78" arrivalPos="1.61" from="91264144" to="23639745#2"/>
    <trip id="300007" depart="7.00" departPos="35.74" arrivalPos="66.29" from="561812188" to="329581449#3"/>
    <trip id="300008" depart="8.00" departPos="9.29" arrivalPos="49.14" from="241036890#3" to="83477315"/>
    <trip id="300009" depart="9.00" departPos="15.99" arrivalPos="51.40" from="52090097#6" to="83477315"/>
    <trip id="3000010" depart="10.00" departPos="12.27" arrivalPos="163.10" from="329636554#0" to="158452644#1"/>
    <trip id="3000011" depart="11.00" departPos="2.88" arrivalPos="156.67" from="-241036884#5" to="158452644#1"/>
    <trip id="3000012" depart="12.00" departPos="0.07" arrivalPos="3.48" from="28585058#3" to="23639745#2"/>
    <trip id="3000013" depart="13.00" departPos="44.72" arrivalPos="54.22" from="1101583549#0" to="83477315"/>
    <trip id="3000014" depart="14.00" departPos="4.39" arrivalPos="33.78" from="-91387335#5" to="83477315"/>
    <trip id="3000015" depart="15.00" departPos="38.07" arrivalPos="60.94" from="932878822" to="83477315"/>
    <trip id="3000016" depart="16.00" departPos="54.11" arrivalPos="2.86" from="561590398#0" to="83477315"/>
    <trip id="3000017" depart="17.00" departPos="2.91" arrivalPos="15.66" from="1139155648" to="23639745#2"/>
    <trip id="3000018" depart="18.00" departPos="122.32" arrivalPos="6.57" from="747087382#2" to="23639745#2"/>
    <trip id="3000019" depart="19.00" departPos="11.12" arrivalPos="4.10" from="885823655#0" to="23639745#2"/>
    <trip id="3000020" depart="20.00" departPos="15.80" arrivalPos="14.91" from="24827396" to="23639745#2"/>
    <trip id="3000021" depart="21.00" departPos="63.40" arrivalPos="287.18" from="183428659#2" to="158452644#1"/>
    <trip id="3000022" depart="22.00" departPos="6.17" arrivalPos="353.64" from="-25301888#2" to="158452644#1"/>
    <trip id="3000023" depart="23.00" departPos="3.45" arrivalPos="6.34" from="485177523" to="23639745#2"/>
    <trip id="3000024" depart="24.00" departPos="288.72" arrivalPos="78.19" from="95033317#1" to="329581449#3"/>
    <trip id="3000025" depart="25.00" departPos="11.42" arrivalPos="47.80" from="-1119891201#2" to="83477315"/>
    <trip id="3000026" depart="26.00" departPos="7.70" arrivalPos="38.70" from="1101583549#0" to="83477315"/>
    <trip id="3000028" depart="28.00" departPos="466.34" arrivalPos="490.64" from="23276957" to="158452644#1"/>
    <trip id="3000029" depart="29.00" departPos="0.24" arrivalPos="13.61" from="1112540831#0" to="83477315"/>
    <trip id="3000030" depart="30.00" departPos="38.57" arrivalPos="48.18" from="432870062#3" to="329581449#3"/>
    <trip id="3000031" depart="31.00" departPos="0.00" arrivalPos="15.43" from="-1011998937#0" to="23639745#2"/>
    <trip id="3000032" depart="32.00" departPos="25.04" arrivalPos="5.16" from="747087387" to="83477315"/>
    <trip id="3000033" depart="33.00" departPos="0.22" arrivalPos="43.26" from="747087386" to="83477315"/>
    <trip id="3000034" depart="34.00" departPos="15.36" arrivalPos="11.43" from="-229361923#5" to="83477315"/>
    <trip id="3000035" depart="35.00" departPos="1.87" arrivalPos="79.25" from="229361924#1" to="329581449#3"/>
    <trip id="3000036" depart="36.00" departPos="27.82" arrivalPos="411.40" from="228362604#1" to="158452644#1"/>
    <trip id="3000037" depart="37.00" departPos="0.10" arrivalPos="10.79" from="102637263#0" to="23639745#2"/>
    <trip id="3000038" depart="38.00" departPos="15.90" arrivalPos="20.41" from="228375342#0" to="329581449#3"/>
    <trip id="3000039" depart="39.00" departPos="0.42" arrivalPos="20.00" from="1152555749" to="329581449#3"/>
    <trip id="3000040" depart="40.00" departPos="3.04" arrivalPos="80.60" from="-229371010" to="83477315"/>
    <trip id="3000041" depart="41.00" departPos="15.00" arrivalPos="377.05" from="677315597" to="158452644#1"/>
    <trip id="3000042" depart="42.00" departPos="124.49" arrivalPos="321.85" from="1044159494#0" to="158452644#1"/>
    <trip id="3000043" depart="43.00" departPos="17.15" arrivalPos="16.95" from="229361923#2" to="83477315"/>
    <trip id="3000044" depart="44.00" departPos="106.40" arrivalPos="7.76" from="-261188331#0" to="23639745#2"/>
    <trip id="3000045" depart="45.00" departPos="39.23" arrivalPos="8.76" from="332896591#2" to="83477315"/>
    <trip id="3000046" depart="46.00" departPos="57.59" arrivalPos="4.13" from="183428993#2" to="23639745#2"/>
    <trip id="3000047" depart="47.00" departPos="29.89" arrivalPos="4.63" from="1017327563#0.235" to="23639745#2"/>
    <trip id="3000048" depart="48.00" departPos="3.70" arrivalPos="76.68" from="1101578759#0" to="83477315"/>
    <trip id="3000049" depart="49.00" departPos="102.34" arrivalPos="471.20" from="24806182#3" to="158452644#1"/>
    <trip id="3000050" depart="50.00" departPos="0.17" arrivalPos="14.81" from="91387325#2" to="83477315"/>
    <trip id="3000051" depart="51.00" departPos="0.08" arrivalPos="33.05" from="229367550#0" to="158452644#1"/>
    <trip id="3000052" depart="52.00" departPos="24.69" arrivalPos="69.80" from="183321211#1" to="83477315"/>
    <trip id="3000053" depart="53.00" departPos="15.18" arrivalPos="16.53" from="229127969" to="23639745#2"/>
    <trip id="3000054" depart="54.00" departPos="22.76" arrivalPos="26.41" from="24806208#4" to="83477315"/>
    <trip id="3000055" depart="55.00" departPos="47.40" arrivalPos="67.95" from="91387325#1" to="329581449#3"/>
    <trip id="3000056" depart="56.00" departPos="20.48" arrivalPos="77.46" from="-228506934#0" to="329581449#3"/>
    <trip id="3000057" depart="57.00" departPos="3.26" arrivalPos="16.54" from="-52090097#9" to="83477315"/>
    <trip id="3000058" depart="58.00" departPos="1.73" arrivalPos="10.67" from="25542639#0" to="83477315"/>
    <trip id="3000059" depart="59.00" departPos="52.31" arrivalPos="349.10" from="826449815" to="158452644#1"/>
    <trip id="3000060" depart="60.00" departPos="30.54" arrivalPos="84.91" from="228358142" to="329581449#3"/>
    <trip id="3000061" depart="61.00" departPos="15.51" arrivalPos="35.23" from="1035804767" to="83477315"/>
    <trip id="3000062" depart="62.00" departPos="50.34" arrivalPos="12.49" from="304098911" to="23639745#2"/>
    <trip id="3000063" depart="63.00" departPos="57.38" arrivalPos="16.55" from="-241036882#2" to="23639745#2"/>
    <trip id="3000064" depart="64.00" departPos="13.40" arrivalPos="526.00" from="-241036882#3" to="158452644#1"/>
    <trip id="3000066" depart="66.00" departPos="24.89" arrivalPos="87.88" from="52090097#9" to="83477315"/>
    <trip id="3000067" depart="67.00" departPos="45.63" arrivalPos="20.72" from="303186567" to="1101578763#3"/>
    <trip id="3000068" depart="68.00" departPos="4.60" arrivalPos="10.28" from="303752947#1" to="83477315"/>
    <trip id="3000069" depart="69.00" departPos="20.54" arrivalPos="54.94" from="-28351554#2" to="329581449#3"/>
    <trip id="3000070" depart="70.00" departPos="0.13" arrivalPos="148.79" from="332620713#2" to="158452644#1"/>
    <trip id="3000071" depart="71.00" departPos="55.32" arrivalPos="8.22" from="229367550#3" to="83477315"/>
    <trip id="3000072" depart="72.00" departPos="0.20" arrivalPos="12.81" from="228362604#2" to="23639745#2"/>
    <trip id="3000073" depart="73.00" departPos="127.66" arrivalPos="9.16" from="28585058#4" to="23639745#2"/>
    <trip id="3000074" depart="74.00" departPos="1.61" arrivalPos="61.11" from="228370166#2" to="1101578763#3"/>
    <trip id="3000075" depart="75.00" departPos="22.59" arrivalPos="52.92" from="83477389#2" to="329581449#3"/>
    <trip id="3000076" depart="76.00" departPos="57.62" arrivalPos="506.68" from="-4885633" to="158452644#1"/>
    <trip id="3000077" depart="77.00" departPos="152.66" arrivalPos="18.70" from="485179716#0" to="83477315"/>
    <trip id="3000078" depart="78.00" departPos="6.51" arrivalPos="498.32" from="1101578759#0" to="158452644#1"/>
    <trip id="3000079" depart="79.00" departPos="0.24" arrivalPos="82.78" from="183697660#3" to="83477315"/>
    <trip id="3000080" depart="80.00" departPos="98.26" arrivalPos="78.46" from="692988380#3" to="83477315"/>
    <trip id="3000081" depart="81.00" departPos="19.94" arrivalPos="82.86" from="-183320482#2" to="83477315"/>
    <trip id="3000082" depart="82.00" departPos="19.67" arrivalPos="23.75" from="485298864#2" to="83477315"/>
    <trip id="3000083" depart="83.00" departPos="401.02" arrivalPos="483.92" from="469405657.440" to="158452644#1"/>
    <trip id="3000084" depart="84.00" departPos="9.52" arrivalPos="27.17" from="1066536031" to="83477315"/>
    <trip id="3000085" depart="85.00" departPos="4.02" arrivalPos="108.85" from="485179716#0" to="158452644#1"/>
    <trip id="3000086" depart="86.00" departPos="50.51" arrivalPos="24.85" from="1148601709#4" to="83477315"/>
    <trip id="3000087" depart="87.00" departPos="26.32" arrivalPos="8.91" from="290731791#0" to="23639745#2"/>
    <trip id="3000088" depart="88.00" departPos="122.78" arrivalPos="100.64" from="91227554#0" to="158452644#1"/>
    <trip id="3000089" depart="89.00" departPos="4.15" arrivalPos="7.22" from="91286656#2" to="23639745#2"/>
    <trip id="3000090" depart="90.00" departPos="18.47" arrivalPos="8.49" from="332896591#1" to="23639745#2"/>
    <trip id="3000091" depart="91.00" departPos="4.52" arrivalPos="64.39" from="183419676#1" to="329581449#3"/>
    <trip id="3000092" depart="92.00" departPos="13.83" arrivalPos="64.04" from="-1011998937#2" to="83477315"/>
    <trip id="3000093" depart="93.00" departPos="8.44" arrivalPos="6.23" from="374051237#2" to="83477315"/>
    <trip id="3000094" depart="94.00" departPos="11.38" arrivalPos="14.09" from="303752947#2" to="23639745#2"/>
    <trip id="3000095" depart="95.00" departPos="10.57" arrivalPos="6.78" from="332620902#2" to="23639745#2"/>
    <trip id="3000096" depart="96.00" departPos="8.51" arrivalPos="6.98" from="183428993#2" to="23639745#2"/>
    <trip id="3000097" depart="97.00" departPos="49.11" arrivalPos="54.79" from="91227554#2" to="83477315"/>
    <trip id="3000098" depart="98.00" departPos="0.00" arrivalPos="26.06" from="1113178397" to="329581449#3"/>
    <trip id="3000099" depart="99.00" departPos="0.13" arrivalPos="42.24" from="228370166#5" to="329581449#3"/>
    <trip id="30000100" depart="100.00" departPos="30.71" arrivalPos="507.92" from="228376733#4" to="158452644#1"/>
    <trip id="30000101" depart="101.00" departPos="14.40" arrivalPos="290.52" from="485179716#0" to="158452644#1"/>
    <trip id="30000102" depart="102.00" departPos="136.70" arrivalPos="12.48" from="28585046#6" to="23639745#2"/>
    <trip id="30000103" depart="103.00" departPos="14.67" arrivalPos="13.77" from="304098914#0" to="158452644#1"/>
    <trip id="30000104" depart="104.00" departPos="18.80" arrivalPos="1.21" from="1100726591#4" to="23639745#2"/>
    <trip id="30000105" depart="105.00" departPos="10.39" arrivalPos="61.99" from="185138727#3" to="83477315"/>
    <trip id="30000106" depart="106.00" departPos="90.58" arrivalPos="3.13" from="23236929#0" to="158452644#1"/>
    <trip id="30000107" depart="107.00" departPos="0.55" arrivalPos="37.85" from="42141138#4" to="83477315"/>
    <trip id="30000108" depart="108.00" departPos="4.00" arrivalPos="4.47" from="-932881558#0" to="83477315"/>
    <trip id="30000109" depart="109.00" departPos="3.98" arrivalPos="71.34" from="1100726591#5" to="83477315"/>
    <trip id="30000110" depart="110.00" departPos="0.12" arrivalPos="84.57" from="303876068#0" to="83477315"/>
    <trip id="30000111" depart="111.00" departPos="2.70" arrivalPos="44.94" from="827063322#0" to="83477315"/>
    <trip id="30000112" depart="112.00" departPos="33.16" arrivalPos="67.55" from="52090097#7" to="329581449#3"/>
    <trip id="30000113" depart="113.00" departPos="20.53" arrivalPos="10.59" from="229361924#0" to="23639745#2"/>
    <trip id="30000114" depart="114.00" departPos="32.46" arrivalPos="24.94" from="432870062#5" to="329581449#3"/>
    <trip id="30000115" depart="115.00" departPos="4.70" arrivalPos="5.31" from="-241036884#2" to="23639745#2"/>
    <trip id="30000116" depart="116.00" departPos="0.57" arrivalPos="391.12" from="24806073#5" to="158452644#1"/>
    <trip id="30000118" depart="118.00" departPos="6.68" arrivalPos="509.99" from="214433585#1" to="158452644#1"/>
    <trip id="30000119" depart="119.00" departPos="9.18" arrivalPos="68.15" from="25539025#4" to="83477315"/>
    <trip id="30000120" depart="120.00" departPos="0.48" arrivalPos="52.14" from="183322883#0" to="1101578763#3"/>
    <trip id="30000121" depart="121.00" departPos="16.07" arrivalPos="66.54" from="669715186#2" to="83477315"/>
    <trip id="30000122" depart="122.00" departPos="22.19" arrivalPos="19.93" from="24806146#3" to="329581449#3"/>
    <trip id="30000123" depart="123.00" departPos="31.70" arrivalPos="382.78" from="228375341#0-AddedOffRampEdge" to="158452644#1"/>
    <trip id="30000124" depart="124.00" departPos="51.05" arrivalPos="71.93" from="183697660#1" to="158452644#1"/>
    <trip id="30000125" depart="125.00" departPos="30.13" arrivalPos="318.10" from="28351102#4" to="158452644#1"/>
    <trip id="30000126" depart="126.00" departPos="2.20" arrivalPos="41.10" from="-183423843#2" to="83477315"/>
    <trip id="30000127" depart="127.00" departPos="2.87" arrivalPos="5.43" from="-228370166#4" to="23639745#2"/>
    <trip id="30000128" depart="128.00" departPos="37.25" arrivalPos="13.82" from="432870062#3" to="23639745#2"/>
    <trip id="30000129" depart="129.00" departPos="0.85" arrivalPos="304.03" from="1101578762#0" to="158452644#1"/>
    <trip id="30000130" depart="130.00" departPos="21.66" arrivalPos="12.98" from="gneE1" to="23639745#2"/>
    <trip id="30000131" depart="131.00" departPos="374.94" arrivalPos="17.75" from="290733242" to="83477315"/>
    <trip id="30000132" depart="132.00" departPos="5.06" arrivalPos="377.32" from="-1150325470" to="158452644#1"/>
    <trip id="30000133" depart="133.00" departPos="34.72" arrivalPos="432.24" from="24827552#2" to="158452644#1"/>
    <trip id="30000134" depart="134.00" departPos="25.61" arrivalPos="10.20" from="-91387335#1" to="83477315"/>
    <trip id="30000135" depart="135.00" departPos="6.68" arrivalPos="2.29" from="5170335#0" to="83477315"/>
    <trip id="30000136" depart="136.00" departPos="11.69" arrivalPos="35.31" from="1121889988" to="83477315"/>
    <trip id="30000137" depart="137.00" departPos="118.58" arrivalPos="353.53" from="332620678#0" to="158452644#1"/>
    <trip id="30000138" depart="138.00" departPos="105.77" arrivalPos="53.45" from="-271921453" to="83477315"/>
    <trip id="30000139" depart="139.00" departPos="17.05" arrivalPos="30.91" from="-332620713#0" to="83477315"/>
    <trip id="30000140" depart="140.00" departPos="6.87" arrivalPos="5.67" from="228370166#4" to="23639745#2"/>
    <trip id="30000141" depart="141.00" departPos="12.33" arrivalPos="85.53" from="638011104" to="83477315"/>
    <trip id="30000142" depart="142.00" departPos="66.14" arrivalPos="38.77" from="28585058#2" to="83477315"/>
    <trip id="30000143" depart="143.00" departPos="27.24" arrivalPos="71.95" from="338659197#3" to="83477315"/>
    <trip id="30000144" depart="144.00" departPos="13.37" arrivalPos="12.14" from="24806073#0" to="23639745#2"/>
    <trip id="30000145" depart="145.00" departPos="59.30" arrivalPos="7.71" from="1101583549#3" to="83477315"/>
    <trip id="30000146" depart="146.00" departPos="9.89" arrivalPos="344.00" from="809580125#0" to="158452644#1"/>
    <trip id="30000147" depart="147.00" departPos="79.23" arrivalPos="102.49" from="183321211#1" to="158452644#1"/>
    <trip id="30000148" depart="148.00" departPos="37.10" arrivalPos="78.37" from="1044159490#2" to="83477315"/>
    <trip id="30000149" depart="149.00" departPos="0.41" arrivalPos="15.75" from="329586442#2" to="23639745#2"/>
    <trip id="30000150" depart="150.00" departPos="7.12" arrivalPos="67.49" from="-241036890#1" to="83477315"/>
    <trip id="30000151" depart="151.00" departPos="18.45" arrivalPos="70.59" from="329581448#1" to="83477315"/>
    <trip id="30000152" depart="152.00" departPos="49.50" arrivalPos="172.58" from="-25302807" to="158452644#1"/>
    <trip id="30000153" depart="153.00" departPos="42.23" arrivalPos="7.07" from="25539025#10" to="23639745#2"/>
    <trip id="30000154" depart="154.00" departPos="66.48" arrivalPos="4.50" from="405768177-AddedOffRampEdge" to="23639745#2"/>
    <trip id="30000155" depart="155.00" departPos="2.35" arrivalPos="67.38" from="1101578761#0" to="158452644#1"/>
    <trip id="30000156" depart="156.00" departPos="4.55" arrivalPos="19.26" from="241036890#3" to="83477315"/>
    <trip id="30000157" depart="157.00" departPos="28.02" arrivalPos="46.70" from="229367549#3" to="83477315"/>
    <trip id="30000158" depart="158.00" departPos="20.56" arrivalPos="128.21" from="1102820406#0" to="158452644#1"/>
    <trip id="30000159" depart="159.00" departPos="16.06" arrivalPos="18.98" from="-gneE0" to="1101578763#3"/>
    <trip id="30000160" depart="160.00" departPos="18.75" arrivalPos="11.47" from="91387335#5" to="329581449#3"/>
    <trip id="30000161" depart="161.00" departPos="497.46" arrivalPos="52.15" from="711292924#0.803" to="329581449#3"/>
    <trip id="30000162" depart="162.00" departPos="24.07" arrivalPos="0.85" from="229361138#0.300" to="23639745#2"/>
    <trip id="30000163" depart="163.00" departPos="31.93" arrivalPos="6.66" from="91227554#3" to="23639745#2"/>
    <trip id="30000164" depart="164.00" departPos="1.90" arrivalPos="13.28" from="-241036882#4" to="83477315"/>
    <trip id="30000165" depart="165.00" departPos="60.07" arrivalPos="1.97" from="24827552#1" to="23639745#2"/>
    <trip id="30000166" depart="166.00" departPos="47.57" arrivalPos="20.09" from="432870062#3-AddedOffRampEdge" to="83477315"/>
    <trip id="30000167" depart="167.00" departPos="25.65" arrivalPos="14.29" from="241036882#2" to="23639745#2"/>
    <trip id="30000168" depart="168.00" departPos="4.80" arrivalPos="10.13" from="932881558#0" to="23639745#2"/>
    <trip id="30000169" depart="169.00" departPos="12.35" arrivalPos="18.79" from="374051237#0" to="83477315"/>
    <trip id="30000170" depart="170.00" departPos="3.14" arrivalPos="42.31" from="303588576#2" to="158452644#1"/>
    <trip id="30000171" depart="171.00" departPos="5.64" arrivalPos="4.84" from="-1011998937#3" to="23639745#2"/>
    <trip id="30000172" depart="172.00" departPos="50.71" arrivalPos="40.42" from="1100670777#0" to="83477315"/>
    <trip id="30000173" depart="173.00" departPos="6.75" arrivalPos="55.64" from="317270965" to="83477315"/>
    <trip id="30000174" depart="174.00" departPos="18.27" arrivalPos="48.48" from="303588576#4" to="83477315"/>
    <trip id="30000175" depart="175.00" departPos="6.38" arrivalPos="6.36" from="290731792#0" to="83477315"/>
    <trip id="30000176" depart="176.00" departPos="0.15" arrivalPos="9.45" from="-91387325#2" to="23639745#2"/>
    <trip id="30000177" depart="177.00" departPos="21.60" arrivalPos="394.38" from="111002458#0" to="158452644#1"/>
    <trip id="30000178" depart="178.00" departPos="26.28" arrivalPos="7.31" from="91227581" to="329581449#3"/>
    <trip id="30000179" depart="179.00" departPos="20.45" arrivalPos="4.16" from="-185138727#1" to="23639745#2"/>
    <trip id="30000180" depart="180.00" departPos="47.06" arrivalPos="51.20" from="-25301888#2" to="83477315"/>
    <trip id="30000181" depart="181.00" departPos="54.95" arrivalPos="23.99" from="91264109" to="83477315"/>
    <trip id="30000182" depart="182.00" departPos="29.85" arrivalPos="58.00" from="-185138727#1" to="83477315"/>
    <trip id="30000183" depart="183.00" departPos="15.08" arrivalPos="357.78" from="885823655#4" to="158452644#1"/>
    <trip id="30000184" depart="184.00" departPos="95.43" arrivalPos="187.86" from="23236898" to="158452644#1"/>
    <trip id="30000185" depart="185.00" departPos="1.09" arrivalPos="61.75" from="304094181" to="83477315"/>
    <trip id="30000186" depart="186.00" departPos="25.52" arrivalPos="48.97" from="111002458#0" to="83477315"/>
    <trip id="30000187" depart="187.00" departPos="5.13" arrivalPos="16.11" from="229127969" to="23639745#2"/>
    <trip id="30000188" depart="188.00" departPos="107.92" arrivalPos="59.74" from="183697660#1" to="329581449#3"/>
    <trip id="30000189" depart="189.00" departPos="11.53" arrivalPos="6.01" from="24806073#8" to="23639745#2"/>
    <trip id="30000190" depart="190.00" departPos="51.17" arrivalPos="18.12" from="429506233#1" to="83477315"/>
    <trip id="30000191" depart="191.00" departPos="14.92" arrivalPos="62.16" from="24806182#2" to="83477315"/>
    <trip id="30000192" depart="192.00" departPos="13.27" arrivalPos="21.30" from="-332620713#0" to="83477315"/>
    <trip id="30000193" depart="193.00" departPos="22.47" arrivalPos="8.47" from="-52090097#9" to="329581449#3"/>
    <trip id="30000194" depart="194.00" departPos="6.91" arrivalPos="10.46" from="932895832" to="83477315"/>
    <trip id="30000195" depart="195.00" departPos="29.16" arrivalPos="46.23" from="52090097#9" to="329581449#3"/>
    <trip id="30000196" depart="196.00" departPos="504.38" arrivalPos="21.70" from="1101798632" to="83477315"/>
    <trip id="30000197" depart="197.00" departPos="192.20" arrivalPos="8.44" from="24806208#0" to="23639745#2"/>
    <trip id="30000198" depart="198.00" departPos="18.73" arrivalPos="70.33" from="753363621" to="83477315"/>
    <trip id="30000199" depart="199.00" departPos="8.06" arrivalPos="73.05" from="214433585#0" to="83477315"/>
    <trip id="30000200" depart="200.00" departPos="62.16" arrivalPos="16.59" from="1102820406#0" to="23639745#2"/>
    <trip id="30000201" depart="201.00" departPos="91.76" arrivalPos="194.52" from="23236713#0" to="158452644#1"/>
    <trip id="30000202" depart="202.00" departPos="9.43" arrivalPos="29.23" from="24806208#1" to="329581449#3"/>
    <trip id="30000203" depart="203.00" departPos="5.43" arrivalPos="20.79" from="1011998937#3" to="83477315"/>
    <trip id="30000204" depart="204.00" departPos="4.64" arrivalPos="397.48" from="44637846#4" to="158452644#1"/>
    <trip id="30000205" depart="205.00" departPos="26.91" arrivalPos="13.63" from="4885635#3" to="23639745#2"/>
    <trip id="30000206" depart="206.00" departPos="2.50" arrivalPos="45.63" from="931813833" to="329581449#3"/>
    <trip id="30000207" depart="207.00" departPos="49.70" arrivalPos="39.20" from="25542635#0" to="83477315"/>
    <trip id="30000208" depart="208.00" departPos="26.92" arrivalPos="6.81" from="241036882#6" to="23639745#2"/>
    <trip id="30000209" depart="209.00" departPos="82.13" arrivalPos="546.26" from="303585469#0" to="158452644#1"/>
    <trip id="30000210" depart="210.00" departPos="42.04" arrivalPos="75.82" from="1154836053#0" to="83477315"/>
    <trip id="30000211" depart="211.00" departPos="9.78" arrivalPos="28.19" from="669715186#10" to="83477315"/>
    <trip id="30000212" depart="212.00" departPos="29.03" arrivalPos="3.20" from="332620902#0" to="83477315"/>
    <trip id="30000213" depart="213.00" departPos="18.19" arrivalPos="88.79" from="-229361923#4" to="83477315"/>
    <trip id="30000214" depart="214.00" departPos="54.28" arrivalPos="10.53" from="405768177.4912" to="23639745#2"/>
    <trip id="30000215" depart="215.00" departPos="18.41" arrivalPos="15.01" from="747087378#0" to="23639745#2"/>
    <trip id="30000216" depart="216.00" departPos="17.14" arrivalPos="33.37" from="-228358142" to="83477315"/>
    <trip id="30000217" depart="217.00" departPos="12.59" arrivalPos="71.99" from="-485312346#2" to="329581449#3"/>
    <trip id="30000218" depart="218.00" departPos="20.78" arrivalPos="349.28" from="-91387335#4" to="158452644#1"/>
    <trip id="30000219" depart="219.00" departPos="20.69" arrivalPos="41.05" from="1100726591#0" to="83477315"/>
    <trip id="30000220" depart="220.00" departPos="0.88" arrivalPos="13.36" from="1101578763#0" to="23639745#2"/>
    <trip id="30000221" depart="221.00" departPos="15.52" arrivalPos="39.32" from="83477315-AddedOnRampEdge" to="83477315"/>
    <trip id="30000222" depart="222.00" departPos="6.48" arrivalPos="38.54" from="1160053324#2" to="329581449#3"/>
    <trip id="30000223" depart="223.00" departPos="1.66" arrivalPos="34.25" from="1101578759#0" to="83477315"/>
    <trip id="30000224" depart="224.00" departPos="15.49" arrivalPos="323.98" from="229367549#2" to="158452644#1"/>
    <trip id="30000225" depart="225.00" departPos="36.43" arrivalPos="10.93" from="939444511" to="23639745#2"/>
    <trip id="30000227" depart="227.00" departPos="10.62" arrivalPos="80.49" from="-228370166#2" to="83477315"/>
    <trip id="30000228" depart="228.00" departPos="18.56" arrivalPos="31.36" from="1107348160#0" to="83477315"/>
    <trip id="30000229" depart="229.00" departPos="116.73" arrivalPos="64.18" from="28585058#4" to="83477315"/>
    <trip id="30000230" depart="230.00" departPos="18.36" arrivalPos="80.42" from="303588576#1" to="83477315"/>
    <trip id="30000231" depart="231.00" departPos="16.05" arrivalPos="9.63" from="290731791#2" to="23639745#2"/>
    <trip id="30000232" depart="232.00" departPos="32.92" arrivalPos="421.30" from="338659197#1" to="158452644#1"/>
    <trip id="30000233" depart="233.00" departPos="4.17" arrivalPos="547.55" from="-932881558#0" to="158452644#1"/>
    <trip id="30000234" depart="234.00" departPos="5.72" arrivalPos="22.88" from="241036885" to="83477315"/>
    <trip id="30000235" depart="235.00" departPos="94.12" arrivalPos="12.40" from="52090097#3" to="23639745#2"/>
    <trip id="30000236" depart="236.00" departPos="62.29" arrivalPos="79.33" from="1154836053#0" to="158452644#1"/>
    <trip id="30000237" depart="237.00" departPos="20.21" arrivalPos="87.23" from="91387215" to="83477315"/>
    <trip id="30000238" depart="238.00" departPos="17.89" arrivalPos="70.39" from="91387325#0" to="83477315"/>
    <trip id="30000239" depart="239.00" departPos="10.25" arrivalPos="61.12" from="-1139155934" to="329581449#3"/>
    <trip id="30000240" depart="240.00" departPos="26.68" arrivalPos="85.42" from="304098912#1" to="329581449#3"/>
    <trip id="30000241" depart="241.00" departPos="0.59" arrivalPos="498.37" from="-28351554#4" to="158452644#1"/>
    <trip id="30000242" depart="242.00" departPos="5.98" arrivalPos="5.63" from="24827396" to="83477315"/>
    <trip id="30000243" depart="243.00" departPos="17.11" arrivalPos="36.35" from="52090097#0" to="83477315"/>
    <trip id="30000244" depart="244.00" departPos="36.66" arrivalPos="43.85" from="-459154041" to="83477315"/>
    <trip id="30000245" depart="245.00" departPos="34.08" arrivalPos="40.38" from="-261188331#0" to="83477315"/>
    <trip id="30000246" depart="246.00" departPos="3.11" arrivalPos="37.31" from="304094181" to="83477315"/>
    <trip id="30000247" depart="247.00" departPos="18.52" arrivalPos="55.81" from="374051237#3" to="158452644#1"/>
    <trip id="30000248" depart="248.00" departPos="12.36" arrivalPos="0.54" from="229371010" to="23639745#2"/>
    <trip id="30000249" depart="249.00" departPos="0.19" arrivalPos="14.21" from="183319560#1" to="23639745#2"/>
    <trip id="30000250" depart="250.00" departPos="36.41" arrivalPos="87.05" from="-261188331#2" to="83477315"/>
    <trip id="30000251" depart="251.00" departPos="51.20" arrivalPos="2.03" from="132277814" to="23639745#2"/>
    <trip id="30000252" depart="252.00" departPos="22.67" arrivalPos="10.66" from="561812189" to="23639745#2"/>
    <trip id="30000253" depart="253.00" departPos="42.65" arrivalPos="137.28" from="25542639#3" to="158452644#1"/>
    <trip id="30000254" depart="254.00" departPos="2.35" arrivalPos="69.51" from="-332620902#2" to="329581449#3"/>
    <trip id="30000255" depart="255.00" departPos="74.35" arrivalPos="185.18" from="104061367#1" to="158452644#1"/>
    <trip id="30000256" depart="256.00" departPos="0.53" arrivalPos="76.42" from="-4885633" to="83477315"/>