<?xml version="1.0" encoding="UTF-8"?>

<!-- generated on 2023-08-07 00:44:46.956495 by randomTrips4.py UNKNOWN
<configuration>
    <end value="4800"/>
    <net-file value="/home/user/sumo-map/istanbul-v1/istanbul-v1.net.xml"/>
    <period value="1.0"/>
    <random-arrivalpos value="True"/>
    <random-departpos value="True"/>
    <remove-loops value="True"/>
    <tg-from-edge value="true"/>
    <output-trip-file value="/home/user/sumo-map/istanbul-v1/random_traffic_from_edges.trips.xml"/>
    <validate value="True"/>
</configuration>
-->

<!-- generated on Mon Aug  7 00:44:45 2023 by Eclipse SUMO duarouter Version 1.8.0
<configuration xmlns:xsi="http://www.w3.org/2001/XMLSchema-instance" xsi:noNamespaceSchemaLocation="http://sumo.dlr.de/xsd/duarouterConfiguration.xsd">

    <input>
        <net-file value="/home/user/sumo-map/istanbul-v1/istanbul-v1.net.xml"/>
        <route-files value="/home/user/sumo-map/istanbul-v1/random_traffic_from_edges.trips.xml"/>
    </input>

    <output>
        <output-file value="/home/user/sumo-map/istanbul-v1/random_traffic_from_edges.trips.xml.tmp"/>
        <alternatives-output value="NUL"/>
        <write-trips value="true"/>
    </output>

    <processing>
        <remove-loops value="true"/>
    </processing>

    <time>
        <begin value="0"/>
        <end value="4800"/>
    </time>

    <report>
        <no-warnings value="true"/>
        <ignore-errors value="true"/>
        <no-step-log value="true"/>
    </report>

</configuration>
-->

<routes xmlns:xsi="http://www.w3.org/2001/XMLSchema-instance" xsi:noNamespaceSchemaLocation="http://sumo.dlr.de/xsd/routes_file.xsd">
    <trip arrivalLane="0" arrivalSpeed="0.0" id="400000" depart="0.00" departPos="64.97" arrivalPos="13.40" from="561590398#0" to="-183320482#2"/>
    <trip arrivalLane="0" arrivalSpeed="0.0" id="400001" depart="1.00" departPos="210.76" arrivalPos="1.69" from="561590398#0" to="307930836#0.79"/>
    <trip arrivalLane="0" arrivalSpeed="0.0" id="400002" depart="2.00" departPos="51.65" arrivalPos="115.15" from="561590398#0" to="-183428659#0"/>
    <trip arrivalLane="0" arrivalSpeed="0.0" id="400003" depart="3.00" departPos="45.65" arrivalPos="4.80" from="1064645867" to="1022125774"/>
    <trip arrivalLane="0" arrivalSpeed="0.0" id="400004" depart="4.00" departPos="56.85" arrivalPos="0.79" from="1064645867" to="25542609#0"/>
    <trip arrivalLane="0" arrivalSpeed="0.0" id="400005" depart="5.00" departPos="186.37" arrivalPos="5.13" from="837903918#0" to="329582423#0"/>
    <trip arrivalLane="0" arrivalSpeed="0.0" id="400006" depart="6.00" departPos="50.80" arrivalPos="20.50" from="837903918#0" to="1150325795#0"/>
    <trip arrivalLane="0" arrivalSpeed="0.0" id="400007" depart="7.00" departPos="442.10" arrivalPos="183.16" from="837903918#0" to="261188331#0"/>
    <trip arrivalLane="0" arrivalSpeed="0.0" id="400008" depart="8.00" departPos="89.42" arrivalPos="6.62" from="561590398#0" to="91387335#3"/>
    <trip arrivalLane="0" arrivalSpeed="0.0" id="400009" depart="9.00" departPos="472.00" arrivalPos="44.06" from="837903918#0" to="28350736#3"/>
    <trip arrivalLane="0" arrivalSpeed="0.0" id="4000010" depart="10.00" departPos="53.84" arrivalPos="16.91" from="561590398#0" to="-228358142"/>
    <trip arrivalLane="0" arrivalSpeed="0.0" id="4000011" depart="11.00" departPos="7.09" arrivalPos="22.13" from="1064645867" to="1100726588#0"/>
    <trip arrivalLane="0" arrivalSpeed="0.0" id="4000012" depart="12.00" departPos="87.45" arrivalPos="7.74" from="561590398#0" to="183297162#0"/>
    <trip arrivalLane="0" arrivalSpeed="0.0" id="4000013" depart="13.00" departPos="56.21" arrivalPos="27.83" from="329581607#1" to="910632856#6"/>
    <trip arrivalLane="0" arrivalSpeed="0.0" id="4000014" depart="14.00" departPos="11.48" arrivalPos="15.13" from="1064645867" to="332896591#2"/>
    <trip arrivalLane="0" arrivalSpeed="0.0" id="4000015" depart="15.00" departPos="305.07" arrivalPos="18.37" from="837903918#0" to="290731791#0"/>
    <trip arrivalLane="0" arrivalSpeed="0.0" id="4000016" depart="16.00" departPos="125.46" arrivalPos="1.46" from="837903918#0" to="44637846#5"/>
    <trip arrivalLane="0" arrivalSpeed="0.0" id="4000017" depart="17.00" departPos="18.30" arrivalPos="65.07" from="329581607#1" to="1101583549#0"/>
    <trip arrivalLane="0" arrivalSpeed="0.0" id="4000018" depart="18.00" departPos="359.02" arrivalPos="22.63" from="837903918#0" to="1139128520"/>
    <trip arrivalLane="0" arrivalSpeed="0.0" id="4000019" depart="19.00" departPos="145.09" arrivalPos="8.80" from="837903918#0" to="229238464#2"/>
    <trip arrivalLane="0" arrivalSpeed="0.0" id="4000020" depart="20.00" departPos="138.10" arrivalPos="121.39" from="561590398#0" to="1101583548#1"/>
    <trip arrivalLane="0" arrivalSpeed="0.0" id="4000022" depart="22.00" departPos="7.70" arrivalPos="13.85" from="1064645867" to="-228370166#0"/>
    <trip arrivalLane="0" arrivalSpeed="0.0" id="4000023" depart="23.00" departPos="34.80" arrivalPos="14.57" from="837903918#0" to="228362604#0"/>
    <trip arrivalLane="0" arrivalSpeed="0.0" id="4000024" depart="24.00" departPos="531.91" arrivalPos="15.97" from="837903918#0" to="241036884#4"/>
    <trip arrivalLane="0" arrivalSpeed="0.0" id="4000025" depart="25.00" departPos="47.88" arrivalPos="13.97" from="1064645867" to="332620902#3"/>
    <trip arrivalLane="0" arrivalSpeed="0.0" id="4000026" depart="26.00" departPos="9.68" arrivalPos="11.66" from="329581607#1" to="290731791#0"/>
    <trip arrivalLane="0" arrivalSpeed="0.0" id="4000027" depart="27.00" departPos="206.90" arrivalPos="25.97" from="561590398#0" to="91264115"/>
    <trip arrivalLane="0" arrivalSpeed="0.0" id="4000028" depart="28.00" departPos="215.59" arrivalPos="258.21" from="561590398#0" to="-95033317#1"/>
    <trip arrivalLane="0" arrivalSpeed="0.0" id="4000029" depart="29.00" departPos="52.82" arrivalPos="49.51" from="329581607#1" to="28585058#6"/>
    <trip arrivalLane="0" arrivalSpeed="0.0" id="4000030" depart="30.00" departPos="103.25" arrivalPos="32.01" from="692988380#0" to="24806073#3"/>
    <trip arrivalLane="0" arrivalSpeed="0.0" id="4000031" depart="31.00" departPos="1.37" arrivalPos="65.40" from="1064645867" to="1148601709#0"/>
    <trip arrivalLane="0" arrivalSpeed="0.0" id="4000032" depart="32.00" departPos="168.44" arrivalPos="2.14" from="837903918#0" to="52090097#7"/>
    <trip arrivalLane="0" arrivalSpeed="0.0" id="4000034" depart="34.00" departPos="53.79" arrivalPos="9.53" from="1064645867" to="432870062#2"/>
    <trip arrivalLane="0" arrivalSpeed="0.0" id="4000035" depart="35.00" departPos="62.61" arrivalPos="29.72" from="561590398#0" to="24806182#2"/>
    <trip arrivalLane="0" arrivalSpeed="0.0" id="4000036" depart="36.00" departPos="127.40" arrivalPos="79.57" from="561590398#0" to="1044159490#2"/>
    <trip arrivalLane="0" arrivalSpeed="0.0" id="4000037" depart="37.00" departPos="69.90" arrivalPos="7.93" from="1064645867" to="1121889988"/>
    <trip arrivalLane="0" arrivalSpeed="0.0" id="4000038" depart="38.00" departPos="28.58" arrivalPos="1.05" from="561590398#0" to="23639745#0"/>
    <trip arrivalLane="0" arrivalSpeed="0.0" id="4000039" depart="39.00" departPos="19.96" arrivalPos="3.79" from="329581607#1" to="25539026#0"/>
    <trip arrivalLane="0" arrivalSpeed="0.0" id="4000040" depart="40.00" departPos="16.08" arrivalPos="27.82" from="1064645867" to="28585046#3"/>
    <trip arrivalLane="0" arrivalSpeed="0.0" id="4000041" depart="41.00" departPos="130.37" arrivalPos="8.89" from="837903918#0" to="-229371010"/>
    <trip arrivalLane="0" arrivalSpeed="0.0" id="4000042" depart="42.00" departPos="65.71" arrivalPos="25.02" from="1064645867" to="-374051237#3"/>
    <trip arrivalLane="0" arrivalSpeed="0.0" id="4000044" depart="44.00" departPos="29.75" arrivalPos="10.59" from="1064645867" to="228374133#1"/>
    <trip arrivalLane="0" arrivalSpeed="0.0" id="4000045" depart="45.00" departPos="232.49" arrivalPos="7.25" from="561590398#0" to="304098914#0"/>
    <trip arrivalLane="0" arrivalSpeed="0.0" id="4000046" depart="46.00" departPos="203.55" arrivalPos="3.81" from="561590398#0" to="1154836053#1"/>
    <trip arrivalLane="0" arrivalSpeed="0.0" id="4000047" depart="47.00" departPos="29.63" arrivalPos="7.53" from="1064645867" to="228506934#2"/>
    <trip arrivalLane="0" arrivalSpeed="0.0" id="4000048" depart="48.00" departPos="38.44" arrivalPos="118.57" from="329581607#1" to="904287742"/>
    <trip arrivalLane="0" arrivalSpeed="0.0" id="4000049" depart="49.00" departPos="236.06" arrivalPos="0.17" from="561590398#0" to="-228370166#5"/>
    <trip arrivalLane="0" arrivalSpeed="0.0" id="4000051" depart="51.00" departPos="94.74" arrivalPos="5.82" from="561590398#0" to="1044159492"/>
    <trip arrivalLane="0" arrivalSpeed="0.0" id="4000052" depart="52.00" departPos="62.65" arrivalPos="27.80" from="561590398#0" to="931815221"/>
    <trip arrivalLane="0" arrivalSpeed="0.0" id="4000053" depart="53.00" departPos="226.15" arrivalPos="51.35" from="561590398#0" to="228362604#1"/>
    <trip arrivalLane="0" arrivalSpeed="0.0" id="4000054" depart="54.00" departPos="36.57" arrivalPos="9.87" from="561590398#0" to="332620902#0"/>
    <trip arrivalLane="0" arrivalSpeed="0.0" id="4000055" depart="55.00" departPos="296.99" arrivalPos="11.08" from="837903918#0" to="25539019#0"/>
    <trip arrivalLane="0" arrivalSpeed="0.0" id="4000056" depart="56.00" departPos="35.32" arrivalPos="9.14" from="1064645867" to="25539025#4"/>
    <trip arrivalLane="0" arrivalSpeed="0.0" id="4000057" depart="57.00" departPos="5.63" arrivalPos="3.50" from="1064645867" to="91286656#0"/>
    <trip arrivalLane="0" arrivalSpeed="0.0" id="4000058" depart="58.00" departPos="55.56" arrivalPos="4.47" from="561590398#0" to="307930836#0.35"/>
    <trip arrivalLane="0" arrivalSpeed="0.0" id="4000059" depart="59.00" departPos="325.65" arrivalPos="13.71" from="837903918#0" to="1100726591#4"/>
    <trip arrivalLane="0" arrivalSpeed="0.0" id="4000060" depart="60.00" departPos="123.50" arrivalPos="10.02" from="561590398#0" to="25539025#4"/>
    <trip arrivalLane="0" arrivalSpeed="0.0" id="4000061" depart="61.00" departPos="16.77" arrivalPos="9.35" from="1064645867" to="332620713#0"/>
    <trip arrivalLane="0" arrivalSpeed="0.0" id="4000062" depart="62.00" departPos="74.69" arrivalPos="12.82" from="561590398#0" to="1113178396"/>
    <trip arrivalLane="0" arrivalSpeed="0.0" id="4000063" depart="63.00" departPos="70.13" arrivalPos="100.58" from="1064645867" to="229238464#1"/>
    <trip arrivalLane="0" arrivalSpeed="0.0" id="4000064" depart="64.00" departPos="18.63" arrivalPos="198.66" from="1064645867" to="1044159491"/>
    <trip arrivalLane="0" arrivalSpeed="0.0" id="4000065" depart="65.00" departPos="202.41" arrivalPos="10.70" from="837903918#0" to="753363621"/>
    <trip arrivalLane="0" arrivalSpeed="0.0" id="4000066" depart="66.00" departPos="335.05" arrivalPos="51.85" from="837903918#0" to="329586442#4"/>
    <trip arrivalLane="0" arrivalSpeed="0.0" id="4000067" depart="67.00" departPos="193.02" arrivalPos="21.75" from="561590398#0" to="-1064645867"/>
    <trip arrivalLane="0" arrivalSpeed="0.0" id="4000069" depart="69.00" departPos="19.13" arrivalPos="9.94" from="1064645867" to="24806208#11"/>
    <trip arrivalLane="0" arrivalSpeed="0.0" id="4000070" depart="70.00" departPos="149.83" arrivalPos="80.31" from="561590398#0" to="1035804753#0"/>
    <trip arrivalLane="0" arrivalSpeed="0.0" id="4000071" depart="71.00" departPos="199.88" arrivalPos="6.05" from="561590398#0" to="83699724#1"/>
    <trip arrivalLane="0" arrivalSpeed="0.0" id="4000072" depart="72.00" departPos="0.84" arrivalPos="0.15" from="561590398#0" to="1101798638"/>
    <trip arrivalLane="0" arrivalSpeed="0.0" id="4000073" depart="73.00" departPos="175.10" arrivalPos="74.59" from="561590398#0" to="1101583548#1"/>
    <trip arrivalLane="0" arrivalSpeed="0.0" id="4000075" depart="75.00" departPos="457.15" arrivalPos="18.35" from="837903918#0" to="24806146#2"/>
    <trip arrivalLane="0" arrivalSpeed="0.0" id="4000076" depart="76.00" departPos="21.65" arrivalPos="29.02" from="1064645867" to="-332620902#4"/>
    <trip arrivalLane="0" arrivalSpeed="0.0" id="4000077" depart="77.00" departPos="492.39" arrivalPos="18.27" from="837903918#0" to="685685426#0.30"/>
    <trip arrivalLane="0" arrivalSpeed="0.0" id="4000078" depart="78.00" departPos="67.67" arrivalPos="109.98" from="329581607#1" to="-271921453"/>
    <trip arrivalLane="0" arrivalSpeed="0.0" id="4000079" depart="79.00" departPos="36.51" arrivalPos="79.37" from="561590398#0" to="28351102#1"/>
    <trip arrivalLane="0" arrivalSpeed="0.0" id="4000080" depart="80.00" departPos="444.10" arrivalPos="16.56" from="837903918#0" to="91397412#1"/>
    <trip arrivalLane="0" arrivalSpeed="0.0" id="4000081" depart="81.00" departPos="23.33" arrivalPos="191.20" from="1064645867" to="37278621#0"/>
    <trip arrivalLane="0" arrivalSpeed="0.0" id="4000082" depart="82.00" departPos="444.09" arrivalPos="32.33" from="837903918#0" to="692988380#3"/>
    <trip arrivalLane="0" arrivalSpeed="0.0" id="4000083" depart="83.00" departPos="477.73" arrivalPos="9.09" from="837903918#0" to="-28351554#3"/>
    <trip arrivalLane="0" arrivalSpeed="0.0" id="4000084" depart="84.00" departPos="32.33" arrivalPos="21.37" from="1064645867" to="5169943"/>
    <trip arrivalLane="0" arrivalSpeed="0.0" id="4000085" depart="85.00" departPos="12.96" arrivalPos="2.67" from="837903918#0" to="1089138640"/>
    <trip arrivalLane="0" arrivalSpeed="0.0" id="4000086" depart="86.00" departPos="83.87" arrivalPos="33.83" from="329581607#1" to="692988380#3"/>
    <trip arrivalLane="0" arrivalSpeed="0.0" id="4000087" depart="87.00" departPos="231.78" arrivalPos="34.08" from="561590398#0" to="183428659#2"/>
    <trip arrivalLane="0" arrivalSpeed="0.0" id="4000088" depart="88.00" departPos="531.54" arrivalPos="5.65" from="837903918#0" to="-330939297#10"/>
    <trip arrivalLane="0" arrivalSpeed="0.0" id="4000089" depart="89.00" departPos="59.38" arrivalPos="29.99" from="837903918#0" to="1101583549#0"/>
    <trip arrivalLane="0" arrivalSpeed="0.0" id="4000090" depart="90.00" departPos="143.20" arrivalPos="117.18" from="561590398#0" to="1138172584"/>
    <trip arrivalLane="0" arrivalSpeed="0.0" id="4000091" depart="91.00" departPos="60.17" arrivalPos="12.01" from="561590398#0" to="25301904"/>
    <trip arrivalLane="0" arrivalSpeed="0.0" id="4000093" depart="93.00" departPos="86.04" arrivalPos="0.23" from="561590398#0" to="304094181"/>
    <trip arrivalLane="0" arrivalSpeed="0.0" id="4000094" depart="94.00" departPos="74.16" arrivalPos="27.87" from="561590398#0" to="1148715863"/>
    <trip arrivalLane="0" arrivalSpeed="0.0" id="4000095" depart="95.00" departPos="73.06" arrivalPos="6.96" from="561590398#0" to="1113178396"/>
    <trip arrivalLane="0" arrivalSpeed="0.0" id="4000096" depart="96.00" departPos="30.07" arrivalPos="0.08" from="561590398#0" to="1112371614"/>
    <trip arrivalLane="0" arrivalSpeed="0.0" id="4000097" depart="97.00" departPos="494.51" arrivalPos="53.05" from="837903918#0" to="312194207#0"/>
    <trip arrivalLane="0" arrivalSpeed="0.0" id="4000098" depart="98.00" departPos="0.04" arrivalPos="3.04" from="329581607#1" to="24806182#0"/>
    <trip arrivalLane="0" arrivalSpeed="0.0" id="4000099" depart="99.00" departPos="154.66" arrivalPos="51.76" from="561590398#0" to="25539025#0"/>
    <trip arrivalLane="0" arrivalSpeed="0.0" id="40000100" depart="100.00" departPos="111.78" arrivalPos="89.39" from="561590398#0" to="1044159492"/>
    <trip arrivalLane="0" arrivalSpeed="0.0" id="40000101" depart="101.00" departPos="46.45" arrivalPos="12.30" from="837903918#0" to="-91387335#4"/>
    <trip arrivalLane="0" arrivalSpeed="0.0" id="40000102" depart="102.00" departPos="193.34" arrivalPos="31.31" from="561590398#0" to="1150325470"/>
    <trip arrivalLane="0" arrivalSpeed="0.0" id="40000103" depart="103.00" departPos="47.04" arrivalPos="1.02" from="561590398#0" to="1066536038"/>
    <trip arrivalLane="0" arrivalSpeed="0.0" id="40000104" depart="104.00" departPos="73.71" arrivalPos="6.05" from="329581607#1" to="229361924#0"/>
    <trip arrivalLane="0" arrivalSpeed="0.0" id="40000105" depart="105.00" departPos="45.93" arrivalPos="28.36" from="561590398#0" to="28585046#2"/>
    <trip arrivalLane="0" arrivalSpeed="0.0" id="40000106" depart="106.00" departPos="154.98" arrivalPos="0.30" from="561590398#0" to="1100726591#3"/>
    <trip arrivalLane="0" arrivalSpeed="0.0" id="40000107" depart="107.00" departPos="14.13" arrivalPos="2.14" from="692988380#0" to="443790676#1"/>
    <trip arrivalLane="0" arrivalSpeed="0.0" id="40000108" depart="108.00" departPos="36.38" arrivalPos="3.67" from="1064645867" to="91264144"/>
    <trip arrivalLane="0" arrivalSpeed="0.0" id="40000110" depart="110.00" departPos="140.66" arrivalPos="18.63" from="561590398#0" to="931984378#1"/>
    <trip arrivalLane="0" arrivalSpeed="0.0" id="40000111" depart="111.00" departPos="393.98" arrivalPos="47.17" from="837903918#0" to="271921455"/>
    <trip arrivalLane="0" arrivalSpeed="0.0" id="40000112" depart="112.00" departPos="491.45" arrivalPos="7.87" from="837903918#0" to="24806182#0"/>
    <trip arrivalLane="0" arrivalSpeed="0.0" id="40000113" depart="113.00" departPos="58.41" arrivalPos="79.11" from="561590398#0" to="1101583548#0"/>
    <trip arrivalLane="0" arrivalSpeed="0.0" id="40000114" depart="114.00" departPos="343.30" arrivalPos="6.80" from="837903918#0" to="23639787#0"/>
    <trip arrivalLane="0" arrivalSpeed="0.0" id="40000115" depart="115.00" departPos="19.09" arrivalPos="9.78" from="1064645867" to="1107348160#0"/>
    <trip arrivalLane="0" arrivalSpeed="0.0" id="40000116" depart="116.00" departPos="54.63" arrivalPos="6.91" from="561590398#0" to="-44637846#7"/>
    <trip arrivalLane="0" arrivalSpeed="0.0" id="40000117" depart="117.00" departPos="96.29" arrivalPos="11.96" from="561590398#0" to="-229238477"/>
    <trip arrivalLane="0" arrivalSpeed="0.0" id="40000118" depart="118.00" departPos="99.25" arrivalPos="77.35" from="561590398#0" to="104061367#1"/>
    <trip arrivalLane="0" arrivalSpeed="0.0" id="40000119" depart="119.00" departPos="202.39" arrivalPos="66.41" from="561590398#0" to="329581607#1"/>
    <trip arrivalLane="0" arrivalSpeed="0.0" id="40000120" depart="120.00" departPos="83.10" arrivalPos="2.89" from="561590398#0" to="-104061367#0"/>
    <trip arrivalLane="0" arrivalSpeed="0.0" id="40000121" depart="121.00" departPos="229.52" arrivalPos="73.71" from="837903918#0" to="91264115"/>
    <trip arrivalLane="0" arrivalSpeed="0.0" id="40000122" depart="122.00" departPos="52.10" arrivalPos="55.07" from="561590398#0" to="261188331#0"/>
    <trip arrivalLane="0" arrivalSpeed="0.0" id="40000123" depart="123.00" departPos="79.40" arrivalPos="154.74" from="561590398#0" to="-183428659#0"/>
    <trip arrivalLane="0" arrivalSpeed="0.0" id="40000124" depart="124.00" departPos="110.41" arrivalPos="11.16" from="561590398#0" to="-91387325#1"/>
    <trip arrivalLane="0" arrivalSpeed="0.0" id="40000125" depart="125.00" departPos="93.08" arrivalPos="9.13" from="561590398#0" to="-183423843#2"/>
    <trip arrivalLane="0" arrivalSpeed="0.0" id="40000126" depart="126.00" departPos="9.53" arrivalPos="19.16" from="1064645867" to="290731791#1"/>
    <trip arrivalLane="0" arrivalSpeed="0.0" id="40000127" depart="127.00" departPos="14.87" arrivalPos="30.43" from="1064645867" to="183321211#1"/>
    <trip arrivalLane="0" arrivalSpeed="0.0" id="40000128" depart="128.00" departPos="99.72" arrivalPos="77.46" from="692988380#0" to="183321211#1"/>
    <trip arrivalLane="0" arrivalSpeed="0.0" id="40000129" depart="129.00" departPos="1.68" arrivalPos="10.22" from="329581607#1" to="-241036888#0"/>
    <trip arrivalLane="0" arrivalSpeed="0.0" id="40000130" depart="130.00" departPos="356.12" arrivalPos="20.65" from="837903918#0" to="1164913794#2"/>
    <trip arrivalLane="0" arrivalSpeed="0.0" id="40000132" depart="132.00" departPos="8.87" arrivalPos="12.43" from="1064645867" to="-52090097#6"/>
    <trip arrivalLane="0" arrivalSpeed="0.0" id="40000133" depart="133.00" departPos="165.23" arrivalPos="0.08" from="561590398#0" to="1053337500#0"/>
    <trip arrivalLane="0" arrivalSpeed="0.0" id="40000134" depart="134.00" departPos="52.53" arrivalPos="7.66" from="1064645867" to="261188331#1"/>
    <trip arrivalLane="0" arrivalSpeed="0.0" id="40000135" depart="135.00" departPos="59.21" arrivalPos="1.29" from="837903918#0" to="91286826"/>
    <trip arrivalLane="0" arrivalSpeed="0.0" id="40000136" depart="136.00" departPos="83.11" arrivalPos="34.18" from="329581607#1" to="312194207#0"/>
    <trip arrivalLane="0" arrivalSpeed="0.0" id="40000137" depart="137.00" departPos="163.14" arrivalPos="23.09" from="561590398#0" to="-241036882#6"/>
    <trip arrivalLane="0" arrivalSpeed="0.0" id="40000138" depart="138.00" departPos="59.72" arrivalPos="15.15" from="1064645867" to="443790676#4"/>
    <trip arrivalLane="0" arrivalSpeed="0.0" id="40000139" depart="139.00" departPos="54.97" arrivalPos="16.77" from="1064645867" to="931815218"/>
    <trip arrivalLane="0" arrivalSpeed="0.0" id="40000140" depart="140.00" departPos="119.52" arrivalPos="0.07" from="561590398#0" to="183319560#1"/>
    <trip arrivalLane="0" arrivalSpeed="0.0" id="40000141" depart="141.00" departPos="57.81" arrivalPos="54.41" from="837903918#0" to="52090097#0"/>
    <trip arrivalLane="0" arrivalSpeed="0.0" id="40000142" depart="142.00" departPos="167.09" arrivalPos="8.08" from="561590398#0" to="52090097#6"/>
    <trip arrivalLane="0" arrivalSpeed="0.0" id="40000144" depart="144.00" departPos="102.90" arrivalPos="19.80" from="561590398#0" to="229367549#2"/>
    <trip arrivalLane="0" arrivalSpeed="0.0" id="40000145" depart="145.00" departPos="72.06" arrivalPos="0.40" from="329581607#1" to="669715186#1"/>
    <trip arrivalLane="0" arrivalSpeed="0.0" id="40000146" depart="146.00" departPos="254.54" arrivalPos="33.31" from="837903918#0" to="1100726591#3"/>
    <trip arrivalLane="0" arrivalSpeed="0.0" id="40000147" depart="147.00" departPos="201.02" arrivalPos="41.43" from="561590398#0" to="-183428659#0"/>
    <trip arrivalLane="0" arrivalSpeed="0.0" id="40000148" depart="148.00" departPos="23.91" arrivalPos="68.06" from="1064645867" to="485179716#3"/>
    <trip arrivalLane="0" arrivalSpeed="0.0" id="40000149" depart="149.00" departPos="2.40" arrivalPos="0.19" from="561590398#0" to="1101798638"/>
    <trip arrivalLane="0" arrivalSpeed="0.0" id="40000150" depart="150.00" departPos="34.32" arrivalPos="25.91" from="1064645867" to="332620902#2"/>
    <trip arrivalLane="0" arrivalSpeed="0.0" id="40000151" depart="151.00" departPos="115.95" arrivalPos="28.86" from="561590398#0" to="290731791#2"/>
    <trip arrivalLane="0" arrivalSpeed="0.0" id="40000152" depart="152.00" departPos="48.59" arrivalPos="15.89" from="1064645867" to="1064645868"/>
    <trip arrivalLane="0" arrivalSpeed="0.0" id="40000153" depart="153.00" departPos="125.42" arrivalPos="8.40" from="561590398#0" to="229361923#4"/>
    <trip arrivalLane="0" arrivalSpeed="0.0" id="40000154" depart="154.00" departPos="166.04" arrivalPos="8.91" from="561590398#0" to="1148715863"/>
    <trip arrivalLane="0" arrivalSpeed="0.0" id="40000155" depart="155.00" departPos="16.70" arrivalPos="6.67" from="329581607#1" to="-330939297#8"/>
    <trip arrivalLane="0" arrivalSpeed="0.0" id="40000156" depart="156.00" departPos="43.74" arrivalPos="10.72" from="561590398#0" to="432870062#3"/>
    <trip arrivalLane="0" arrivalSpeed="0.0" id="40000157" depart="157.00" departPos="230.70" arrivalPos="6.05" from="561590398#0" to="332896591#0"/>
    <trip arrivalLane="0" arrivalSpeed="0.0" id="40000158" depart="158.00" departPos="16.84" arrivalPos="15.21" from="329581607#1" to="-261188331#2"/>
    <trip arrivalLane="0" arrivalSpeed="0.0" id="40000159" depart="159.00" departPos="37.52" arrivalPos="6.18" from="1064645867" to="-1139155934"/>
    <trip arrivalLane="0" arrivalSpeed="0.0" id="40000160" depart="160.00" departPos="382.01" arrivalPos="3.69" from="837903918#0" to="24806208#2"/>
    <trip arrivalLane="0" arrivalSpeed="0.0" id="40000161" depart="161.00" departPos="478.03" arrivalPos="50.91" from="837903918#0" to="23236879"/>
    <trip arrivalLane="0" arrivalSpeed="0.0" id="40000162" depart="162.00" departPos="43.55" arrivalPos="1.17" from="561590398#0" to="228376733#0"/>
    <trip arrivalLane="0" arrivalSpeed="0.0" id="40000163" depart="163.00" departPos="450.31" arrivalPos="3.41" from="837903918#0" to="229361927"/>
    <trip arrivalLane="0" arrivalSpeed="0.0" id="40000165" depart="165.00" departPos="234.79" arrivalPos="14.98" from="561590398#0" to="1115520573"/>
    <trip arrivalLane="0" arrivalSpeed="0.0" id="40000166" depart="166.00" departPos="433.13" arrivalPos="15.09" from="837903918#0" to="261188331#1"/>
    <trip arrivalLane="0" arrivalSpeed="0.0" id="40000167" depart="167.00" departPos="104.58" arrivalPos="78.24" from="561590398#0" to="228506934#5"/>
    <trip arrivalLane="0" arrivalSpeed="0.0" id="40000168" depart="168.00" departPos="340.17" arrivalPos="0.24" from="837903918#0" to="1120744123#0"/>
    <trip arrivalLane="0" arrivalSpeed="0.0" id="40000169" depart="169.00" departPos="49.09" arrivalPos="4.82" from="561590398#0" to="91264101"/>
    <trip arrivalLane="0" arrivalSpeed="0.0" id="40000170" depart="170.00" departPos="41.06" arrivalPos="3.05" from="561590398#0" to="-52090097#9"/>
    <trip arrivalLane="0" arrivalSpeed="0.0" id="40000171" depart="171.00" departPos="41.71" arrivalPos="26.49" from="1064645867" to="228506934#5"/>
    <trip arrivalLane="0" arrivalSpeed="0.0" id="40000172" depart="172.00" departPos="49.38" arrivalPos="21.19" from="1064645867" to="329636554#3"/>
    <trip arrivalLane="0" arrivalSpeed="0.0" id="40000173" depart="173.00" departPos="186.11" arrivalPos="15.00" from="561590398#0" to="905472874"/>
    <trip arrivalLane="0" arrivalSpeed="0.0" id="40000174" depart="174.00" departPos="100.43" arrivalPos="95.15" from="561590398#0" to="90888399#0"/>
    <trip arrivalLane="0" arrivalSpeed="0.0" id="40000175" depart="175.00" departPos="195.28" arrivalPos="5.34" from="561590398#0" to="837903918#11"/>
    <trip arrivalLane="0" arrivalSpeed="0.0" id="40000176" depart="176.00" departPos="52.61" arrivalPos="3.25" from="1064645867" to="1121082739"/>
    <trip arrivalLane="0" arrivalSpeed="0.0" id="40000177" depart="177.00" departPos="59.74" arrivalPos="20.22" from="329581607#1" to="-332620902#1"/>
    <trip arrivalLane="0" arrivalSpeed="0.0" id="40000178" depart="178.00" departPos="270.48" arrivalPos="41.10" from="837903918#0" to="23276957"/>
    <trip arrivalLane="0" arrivalSpeed="0.0" id="40000179" depart="179.00" departPos="22.64" arrivalPos="20.60" from="1064645867" to="228374133#2"/>
    <trip arrivalLane="0" arrivalSpeed="0.0" id="40000180" depart="180.00" departPos="58.72" arrivalPos="12.17" from="1064645867" to="91286656#1"/>
    <trip arrivalLane="0" arrivalSpeed="0.0" id="40000182" depart="182.00" departPos="33.05" arrivalPos="43.87" from="1064645867" to="429506233#1"/>
    <trip arrivalLane="0" arrivalSpeed="0.0" id="40000183" depart="183.00" departPos="320.61" arrivalPos="0.13" from="837903918#0" to="1011998934"/>
    <trip arrivalLane="0" arrivalSpeed="0.0" id="40000184" depart="184.00" departPos="82.20" arrivalPos="18.76" from="561590398#0" to="-25301888#2"/>
    <trip arrivalLane="0" arrivalSpeed="0.0" id="40000185" depart="185.00" departPos="77.91" arrivalPos="26.81" from="561590398#0" to="669715186#8"/>
    <trip arrivalLane="0" arrivalSpeed="0.0" id="40000187" depart="187.00" departPos="76.37" arrivalPos="55.49" from="561590398#0" to="1139128520"/>
    <trip arrivalLane="0" arrivalSpeed="0.0" id="40000188" depart="188.00" departPos="233.42" arrivalPos="179.50" from="561590398#0" to="23639417"/>
    <trip arrivalLane="0" arrivalSpeed="0.0" id="40000189" depart="189.00" departPos="44.31" arrivalPos="9.32" from="561590398#0" to="185138727#2"/>
    <trip arrivalLane="0" arrivalSpeed="0.0" id="40000190" depart="190.00" departPos="100.77" arrivalPos="14.86" from="692988380#0" to="28351554#2"/>
    <trip arrivalLane="0" arrivalSpeed="0.0" id="40000191" depart="191.00" departPos="103.50" arrivalPos="41.11" from="561590398#0" to="90888271"/>
    <trip arrivalLane="0" arrivalSpeed="0.0" id="40000192" depart="192.00" departPos="42.77" arrivalPos="5.71" from="1064645867" to="91387335#4"/>
    <trip arrivalLane="0" arrivalSpeed="0.0" id="40000194" depart="194.00" departPos="252.76" arrivalPos="8.50" from="837903918#0" to="880759175#5"/>
    <trip arrivalLane="0" arrivalSpeed="0.0" id="40000195" depart="195.00" departPos="392.52" arrivalPos="21.09" from="837903918#0" to="23236954-AddedOnRampEdge"/>
    <trip arrivalLane="0" arrivalSpeed="0.0" id="40000196" depart="196.00" departPos="85.03" arrivalPos="12.95" from="329581607#1" to="52090098#1"/>
    <trip arrivalLane="0" arrivalSpeed="0.0" id="40000197" depart="197.00" departPos="217.77" arrivalPos="71.99" from="561590398#0" to="183323102#0"/>
    <trip arrivalLane="0" arrivalSpeed="0.0" id="40000198" depart="198.00" departPos="151.31" arrivalPos="95.74" from="837903918#0" to="692988380#3"/>
    <trip arrivalLane="0" arrivalSpeed="0.0" id="40000199" depart="199.00" departPos="119.94" arrivalPos="364.00" from="561590398#0" to="910632854#0"/>
    <trip arrivalLane="0" arrivalSpeed="0.0" id="40000200" depart="200.00" departPos="50.91" arrivalPos="0.40" from="329581607#1" to="1112540831#0"/>
    <trip arrivalLane="0" arrivalSpeed="0.0" id="40000201" depart="201.00" departPos="127.23" arrivalPos="64.51" from="561590398#0" to="-4885633"/>
    <trip arrivalLane="0" arrivalSpeed="0.0" id="40000202" depart="202.00" departPos="107.57" arrivalPos="4.03" from="561590398#0" to="24806146#0"/>
    <trip arrivalLane="0" arrivalSpeed="0.0" id="40000203" depart="203.00" departPos="40.16" arrivalPos="28.01" from="1064645867" to="329581607#4"/>