<?xml version="1.0" encoding="UTF-8"?>

<!-- generated on 2023-07-25 13:11:55.089294 by randomTrips4.py UNKNOWN
<configuration>
    <net-file value="/home/user/sumo-map/istanbul-v1/istanbul-v1.net.xml"/>
    <period value="1.0"/>
    <random-arrivalpos value="True"/>
    <random-departpos value="True"/>
    <remove-loops value="True"/>
    <tg-from-edge value="true"/>
    <output-trip-file value="random_traffic_from_edges.trips.xml"/>
    <validate value="True"/>
</configuration>
-->

<!-- generated on Tue Jul 25 13:11:53 2023 by Eclipse SUMO duarouter Version 1.8.0
<configuration xmlns:xsi="http://www.w3.org/2001/XMLSchema-instance" xsi:noNamespaceSchemaLocation="http://sumo.dlr.de/xsd/duarouterConfiguration.xsd">

    <input>
        <net-file value="/home/user/sumo-map/istanbul-v1/istanbul-v1.net.xml"/>
        <route-files value="random_traffic_from_edges.trips.xml"/>
    </input>

    <output>
        <output-file value="routes.rou.xml"/>
        <alternatives-output value="NUL"/>
    </output>

    <processing>
        <remove-loops value="true"/>
    </processing>

    <time>
        <begin value="0"/>
        <end value="3600"/>
    </time>

    <report>
        <no-warnings value="true"/>
        <ignore-errors value="true"/>
        <no-step-log value="true"/>
    </report>

</configuration>
-->

<routes xmlns:xsi="http://www.w3.org/2001/XMLSchema-instance" xsi:noNamespaceSchemaLocation="http://sumo.dlr.de/xsd/routes_file.xsd">
    <vehicle id="0" depart="0.00" departPos="64.97" arrivalPos="4.77">
        <route edges="561590398#0 561590398#0-AddedOffRampEdge 1101798632 905472877 905472876 1159235273 827491212#0 827491212#1 827491212#3 827491212#4 1066536034#0 1066536038 904287742 91227581 887295434 1101578762#0 1101578762#1 91227580 747087387 1089138646 747087386 1144466566#0 1144466566#4 931815219 1066826596 91264115 967292583 931813832 910632854#0 329581448#0 329581448#1 1011998935#2 -228370166#5 -228370166#4 -228370166#2"/>
    </vehicle>
    <vehicle id="2" depart="2.00" departPos="51.65" arrivalPos="33.21">
        <route edges="561590398#0 561590398#0-AddedOffRampEdge 1101798632 905472877 905472876 1159235273 827491212#0 827491212#1 827491212#3 827491212#4 1066536034#0 1066536038 904287742 91227581 887295434 1101578762#0 1101578762#1 303758270#0 303758270#1 183322883#3 183322883#7 228375341#0 228375341#0-AddedOffRampEdge 753363624#0 931815221 692988381#0 692988381#1 1101578763#0 1101578763#1 1101578763#2 692988380#2 91286757#0 91286757#1 91286757#2 228506960#1 1022125773#0 1022125774 228506934#0 228506934#1 228506934#2 228506934#4 -228506934#4"/>
    </vehicle>
    <vehicle id="3" depart="3.00" departPos="45.65" arrivalPos="31.17">
        <route edges="1064645867 23236879 826449813 827063322#0 827063322#1 827063322#1.69 23276957 1066826599 5169941 91264112 1121082741 931813833 931815218 183697660#0 110321109#0 110321109#2 110321109#3 110321109#4 110321109#5 110321109#6 110321025#2 183695462#0 304076228#1 1139128520"/>
    </vehicle>
    <vehicle id="5" depart="5.00" departPos="186.37" arrivalPos="11.54">
        <route edges="837903918#0 837903918#11 837903918#11.71 837903918#13 42141136#0 1160053324#0 1160053324#2 1160053324#3 1160053324#6 443790676#0 443790676#1 443790676#2 443790676#3 443790676#4 1150725755#0 827063324 5169873 91264144 827063326 931813831 910632857 1006582996 1181770075 1181770075.112 1181770075.209 1181770075.209.153 967292584 967292583 91264109 5169941 90888385 747087382#0 747087382#1 747087382#2 747087382#4 931984378#0 931984378#1 1089138640 317270969 1101578760 1148450970 1148450970-AddedOffRampEdge 332620678#0 91286826 1041142285#0 826449815 183322883#0 183322883#3 183322883#7 432870062#2"/>
    </vehicle>
    <vehicle id="6" depart="6.00" departPos="50.80" arrivalPos="6.50">
        <route edges="837903918#0 837903918#11 837903918#11.71 837903918#13 42141136#0 1160053324#0 1160053324#2 1160053324#3 1160053324#6 443790676#0 443790676#1 443790676#2 443790676#3 443790676#4 1150725755#0 827063324 5169873 91264144 827063326 931813831 910632857 1006582996 1181770075 1181770075.112 1181770075.209 1181770075.209.153 967292584 967292583 91264109 5169941 90888385 747087382#0 747087382#1 747087382#2 747087382#4 931984378#0 931984378#1 1089138640 317270969 1101578760 1148450970 1148450970-AddedOffRampEdge 826449814 1101798644#0 887295435 91227588 677315596 91227584#0 1101798638 1101798639#0 1101798639#1 90888359 561607211#1 561607211#2 827491212#3 1066536040#1 25542639#0 25542639#1 25542639#2 25542639#3 25542639#4 25542639#6 25542639#7 25542635#0 25542635#3 229367549#0"/>
    </vehicle>
    <vehicle id="7" depart="7.00" departPos="442.10" arrivalPos="106.23">
        <route edges="837903918#0 837903918#11 837903918#11.71 837903918#13 42141136#0 1160053324#0 1160053324#2 1160053324#3 1160053324#6 443790676#0 443790676#1 443790676#2 443790676#3 443790676#4 1150725755#0 827063324 5169873 91264144 827063326 931813831 910632857 1006582996 1181770075 1181770075.112 1181770075.209 1181770075.209.153 967292584 967292583 91264109 5169941 90888385 747087382#0 747087382#1 747087382#2 747087382#4 931984378#0 931984378#1 1089138640 317270969 1101578760 1148450970 1148450970-AddedOffRampEdge 826449814 1101798644#0 887295435 91227588 677315596 91227584#0 1101798638 1101798639#0 1101798639#1 90888359 561607211#1 561607211#2 827491212#3 1066536040#1 25542639#0 25542639#1 25542639#2 25542639#3 25542639#4 25542639#6 25542639#7 25542635#0 25542635#3 1100726590#0 1100726590#1 1101583548#0 1101583548#1 1101583548#5 303752947#0 303752947#1 303752947#2 -255361388 24827396 332739234"/>
    </vehicle>
    <vehicle id="8" depart="8.00" departPos="89.42" arrivalPos="26.50">
        <route edges="561590398#0 561590398#0-AddedOffRampEdge 1101798632 905472877 905472876 1159235273 827491212#0 827491212#1 827491212#3 827491212#4 1066536034#0 1066536038 904287742 91227581 887295434 1101578762#0 1101578762#1 91227580 747087387 1089138646 747087386 1144466566#0 1144466566#4 931815219 1066826596 91264115 967292583 931813832 910632854#0 329581448#0 329581448#1 329581448#2 329581449#0 329581449#3 91342797"/>
    </vehicle>
    <vehicle id="9" depart="9.00" departPos="472.00" arrivalPos="118.59">
        <route edges="837903918#0 837903918#11 837903918#11.71 837903918#13 1160053322#0 1119891201#0 1160053323 37278621#0"/>
    </vehicle>
    <vehicle id="10" depart="10.00" departPos="53.84" arrivalPos="20.71">
        <route edges="561590398#0 561590398#0-AddedOffRampEdge 1101798632 905472877 905472876 1159235273 827491212#0 827491212#1 827491212#3 827491212#4 1066536034#0 1066536038 904287742 91227581 887295434 1101578762#0 1101578762#1 91227580 747087387 1089138646 747087386 1144466566#0 1144466566#4 91264104#0 91264104#1 91264104#2 183697660#0 183697660#1 183697660#1.133 183697660#3 1033521274 1050713028 290731792#0 290731792#1 290731792#2 290731792#3 290731846 1107348161 91264191#0 827063325#0 827063325#0.102 303585469#0 271921453 271921455 271921463 -183276176 -98625943#1 -98625943#0 -25302807"/>
    </vehicle>
    <vehicle id="11" depart="11.00" departPos="7.09" arrivalPos="58.92">
        <route edges="1064645867 23236879 826449813 827063322#0 1150325795#0"/>
    </vehicle>
    <vehicle id="12" depart="12.00" departPos="87.45" arrivalPos="107.06">
        <route edges="561590398#0 561590398#0-AddedOffRampEdge 1101798632 905472877 905472876 1159235273 827491212#0 827491212#1 827491212#3 827491212#4 1066536034#0 1066536038 904287742 91227581 887295434 1101578762#0 1101578762#1 91227580 747087387 1089138646 747087386 1144466566#0 1144466566#4 931815219 1066826596 5169943 23276976 23276954 23276954.77 23639745#0 23639745#1 23639745#2 753363621 1064645868 23236954-AddedOnRampEdge 23236954 28585058#0 1120744123#2 1064645867 23236879 826449813 827063322#0 827063322#1 827063322#1.69 23276957"/>
    </vehicle>
    <vehicle id="13" depart="13.00" departPos="56.21" arrivalPos="270.22">
        <route edges="329581607#1 329581607#3 329581607#4 1011998935#0 1011998935#2 1011998935#3 1011998935#4 910632856#0 910632856#1 910632856#6 939444511 931813833 91264113 1066826596 91264115 967292583 931813832 910632854#0"/>
    </vehicle>
    <vehicle id="16" depart="16.00" departPos="125.46" arrivalPos="6.56">
        <route edges="837903918#0 837903918#11 837903918#11.71 837903918#13 42141136#0 1160053324#0 1160053324#2 1160053324#3 1160053324#6 443790676#0 443790676#1 443790676#2 443790676#3 443790676#4 1150725755#0 827063324 5169873 1035804767 827063325#0 827063325#0.102 1152555749 1044159490#0 1044159490#1 261188322 261188331#1 1148601709#4 1121889988 183697894#0 183697894#0-AddedOffRampEdge 4885626#0"/>
    </vehicle>
    <vehicle id="17" depart="17.00" departPos="18.30" arrivalPos="90.98">
        <route edges="329581607#1 329581607#3 329581607#4 1011998935#0 1011998935#2 1011998935#3 1011998935#4 910632856#0 910632856#1 910632856#6 939444511 931813833 931815218 183697660#0 183697660#1 183697660#1.133 183697660#3 1033521274 1050713028 290731792#0 290731792#1 229363521#0 229363521#3 229363521#6 183319306-AddedOnRampEdge"/>
    </vehicle>
    <vehicle id="18" depart="18.00" departPos="359.02" arrivalPos="25.68">
        <route edges="837903918#0 837903918#11 837903918#11.71 837903918#13 42141136#0 1160053324#0 1160053324#2 1160053324#3 1160053324#6 443790676#0 443790676#1 443790676#2 443790676#3 443790676#4 1150725755#0 827063324 5169873 91264144 827063326 931813831 910632857 1006582996 1181770075 1181770075.112 1181770075.209 1181770075.209.153 967292584 967292583 91264109 5169941 90888385 747087382#0 747087382#1 747087382#2 747087382#4 931984378#0 931984378#1 1089138640 317270969 1101578760 1148450970 1148450970-AddedOffRampEdge 332620678#0 91286826 1041142285#0 826449815 183322883#0 183322883#3 183322883#7 432870062#2 23639533#0 23639533#1 23639548#0 23639548#1 228376733#0 228376733#2 228376733#4"/>
    </vehicle>
    <vehicle id="19" depart="19.00" departPos="145.09" arrivalPos="18.01">
        <route edges="837903918#0 837903918#11 837903918#11.71 837903918#13 42141136#0 1160053324#0 1160053324#2 1160053324#3 1160053324#6 443790676#0 443790676#1 443790676#2 443790676#3 443790676#4 1150725755#0 827063324 5169873 91264144 827063326 931813831 910632857 1006582996 1181770075 1181770075.112 1181770075.209 1181770075.209.153 967292584 967292583 91264109 5169941 90888385 747087382#0 747087382#1 747087382#2 747087382#4 931984378#0 931984378#1 1089138640 317270965 747087378#1 317270976 685685426#0 685685426#3 747087386 1144466566#0 -304076228#6 -28351554#5 -28351554#4 -28351554#3 -28351554#2 28351554#2"/>
    </vehicle>
    <vehicle id="20" depart="20.00" departPos="138.10" arrivalPos="506.03">
        <route edges="561590398#0 561590398#0-AddedOffRampEdge 1101798631 1101798631.209 1101798631.928 1115520573 1115520572 880759175#0-AddedOnRampEdge 880759175#0 880759175#5 1017327563#0 1017327563#0.235 1017327563#0.312 1147720153#0 711292924#0 711292924#0.803 722760572#0 722760573#0 1147711771 90888271 300399531#0 1044159495 1044159494#0 183697894#0 183697894#0-AddedOffRampEdge 4885626#0 931813835 4885624 931813837 25539025#0 25539025#1 25539025#2 25539025#4 25539025#6 25539025#7 25539025#8 25539025#9 25539025#10 25539025#12 886025395#0 1035804753#0 158452644#1"/>
    </vehicle>
    <vehicle id="21" depart="21.00" departPos="235.65" arrivalPos="768.20">
        <route edges="561590398#0 561590398#0-AddedOffRampEdge 1101798632 905472877 905472876 1159235273 827491212#0 827491212#1 827491212#3 827491212#4 1066536034#0 1066536038 904287742 91227581 887295434 1101578762#0 1101578762#1 91227580 747087387 1089138646 747087386 1144466566#0 1144466566#4 91264104#0 91264104#1 91264104#2 183697660#0 183697660#1 183697660#1.133 183697660#3 1033521274 1050713028 290731792#0 290731792#1 290731792#2 290731792#3 290731846 1107348161 91264191#0 827063325#0 827063325#0.102 1152555749 1044159490#0 1044159490#1 1044159490#2 1044159491 1044159492 183697893 90888272 90888302 1147711776#0"/>
    </vehicle>
    <vehicle id="22" depart="22.00" departPos="7.70" arrivalPos="29.04">
        <route edges="1064645867 23236879 826449813 23639695 23639778 5170334#0 5170334#1 5170334#4 1112371617#0 1112371611#0 1112371614 1164913793 1164913795 1164913794#0 1164913794#2 1164913794#3 183743129#0 1107348164#0 25539025#0 25539025#1 25539025#2 25539025#4 25539025#6 25539025#7 25539025#8 25539025#9 25539025#10 25539025#12 886025395#0 1035804753#0 158452642#0 837903918#11 837903918#11.71 837903918#13 1160053322#0 1119891201#0 1160053323 37278621#0 37278621#2 37278621#3 37278621#4 25562609#0 -25562609#1"/>
    </vehicle>
    <vehicle id="23" depart="23.00" departPos="34.80" arrivalPos="47.42">
        <route edges="837903918#0 837903918#11 837903918#11.71 837903918#13 42141136#0 1160053324#0 1160053324#2 1160053324#3 1160053324#6 443790676#0 443790676#1 443790676#2 443790676#3 443790676#4 1150725755#0 827063324 5169873 1035804767 827063325#0 827063325#0.102 303585469#0 271921453 271921455 271921463 -228358142 4885635#0 4885635#1 4885635#2 4885635#3 4885635#4 4885635#5 303588576#0 303588576#1 303588576#2 -25301488 25301472"/>
    </vehicle>
    <vehicle id="24" depart="24.00" departPos="531.91" arrivalPos="309.60">
        <route edges="837903918#0 837903918#11 837903918#11.71 837903918#13 42141136#0 1160053324#0 1160053324#2 1160053324#3 1160053324#6 443790676#0 443790676#1 443790676#2 443790676#3 443790676#4 1150725755#0 827063324 5169873 91264144 827063326 931813831 910632857 1006582996 1181770075 1181770075.112 1181770075.209 1181770075.209.153 967292584 967292583 931813832 910632854#0 329581448#0 329581448#1 329581448#2 329581449#0"/>
    </vehicle>
    <vehicle id="25" depart="25.00" departPos="47.88" arrivalPos="174.68">
        <route edges="1064645867 23236879 826449813 827063322#0 827063322#1 827063322#1.69 23276957 1066826599 5169941 90888385 747087382#0 747087382#1 747087382#2 747087382#4 931984378#0 931984378#1 1089138640 317270969 1101578760 1148450970 1148450970-AddedOffRampEdge 826449814 1101798644#0 887295435 91227588 677315596 91227584#0 1101798638 1101798639#0 1101798639#1 90888399#0 1138172584 83477315-AddedOnRampEdge 83477315 1115308625 461081394#1-AddedOnRampEdge 461081394#1"/>
    </vehicle>
    <vehicle id="27" depart="27.00" departPos="206.90" arrivalPos="22.71">
        <route edges="561590398#0 561590398#0-AddedOffRampEdge 1101798632 905472877 905472876 1159235273 827491212#0 827491212#1 827491212#3 827491212#4 1066536034#0 1066536038 904287742 91227581 887295434 1101578762#0 1101578762#1 91227580 747087387 1089138646 747087386 1144466566#0 1144466566#4 931815219 1066826596 91264115 967292583 91264109"/>
    </vehicle>
    <vehicle id="28" depart="28.00" departPos="215.59" arrivalPos="240.80">
        <route edges="561590398#0 561590398#0-AddedOffRampEdge 1101798631 1101798631.209 1101798631.928 1115520573 638011104 312194207#0-AddedOnRampEdge 312194207#0 312194207#1-AddedOnRampEdge 312194207#1 312194207#2 312194207#3 312194207#5-AddedOnRampEdge 312194207#5 312194207#5-AddedOffRampEdge 1101798635"/>
    </vehicle>
    <vehicle id="30" depart="30.00" departPos="103.25" arrivalPos="160.15">
        <route edges="692988380#0 692988380#2 692988380#3 1041142286#0 826449815 1101578759#0 685685426#0 685685426#3 747087386 1144466566#0 1144466566#4 931815219 1066826596 91264115 967292583 931813832 910632854#0 329581448#0 329581448#1 329581448#2 329581449#0 329581449#3 329582423#0 329582423#1-AddedOnRampEdge 329582423#1"/>
    </vehicle>
    <vehicle id="31" depart="31.00" departPos="1.37" arrivalPos="134.83">
        <route edges="1064645867 -1064645867 23236899#0 23236899#2 885823655#0 885823655#1 885823655#4 885823655#6 885823655#7 228967155#0"/>
    </vehicle>
    <vehicle id="32" depart="32.00" departPos="168.44" arrivalPos="46.21">
        <route edges="837903918#0 837903918#11 837903918#11.71 837903918#13 42141136#0 1160053324#0 1160053324#2 1160053324#3 1160053324#6 443790676#0 443790676#1 443790676#2 443790676#3 443790676#4 1150725755#0 827063324 5169873 1035804767 827063325#0 827063325#0.102 1152555749 1044159490#0 1044159490#1 1044159490#2 1044159491 1044159492 183697893 90888272 90888302 1147711776#0 711292924#0"/>
    </vehicle>
    <vehicle id="33" depart="33.00" departPos="46.92" arrivalPos="139.22">
        <route edges="837903918#0 837903918#11 837903918#11.71 837903918#13 42141136#0 1160053324#0 1160053324#2 1160053324#3 1160053324#6 443790676#0 443790676#1 443790676#2 443790676#3 443790676#4 1150725755#0 827063324 5169873 91264144 827063326 931813831 910632857 1006582996 1181770075 1181770075.112 1181770075.209 1181770075.209.153 967292584 967292583 91264109 5169941 90888385 747087382#0 747087382#1 747087382#2 747087382#4 931984378#0 931984378#1 1089138640 317270969 1101578760 1148450970 1148450970-AddedOffRampEdge 826449814 1101798644#0 887295435 91227588 677315596 91227584#0 1101798638 1101798639#0 1101798639#1 90888359 561607211#1 561607211#2 827491212#3 827491212#4 1066536034#0 1066536038 904287742 91227581 887295434 1101578762#0 1101578762#1 91227580"/>
    </vehicle>
    <vehicle id="34" depart="34.00" departPos="53.79" arrivalPos="10.61">
        <route edges="1064645867 23236879 826449813 827063322#0 827063322#1 827063322#1.69 23276957 1066826599 5169941 90888385 747087382#0 747087382#1 747087382#2 747087382#4 931984378#0 931984378#1 1089138640 317270969 1101578760 1148450970 1148450970-AddedOffRampEdge 332620678#0 91286826 1041142285#0 826449815 183322883#0 183322883#3 183322883#7 432870062#2 432870062#3 432870062#3-AddedOffRampEdge 432870062#5 227463510#0 228376424 28351006#1 28351006#2 1112540828 485179713"/>
    </vehicle>
    <vehicle id="36" depart="36.00" departPos="127.40" arrivalPos="1100.50">
        <route edges="561590398#0 561590398#0-AddedOffRampEdge 1101798632 905472877 905472876 1159235273 827491212#0 827491212#1 827491212#3 827491212#4 1066536034#0 1066536038 904287742 91227581 887295434 1101578762#0 1101578762#1 91227580 747087387 1089138646 747087386 1144466566#0 1144466566#4 91264104#0 91264104#1 91264104#2 183697660#0 183697660#1 183697660#1.133 183697660#3 1033521274 1050713028 290731792#0 290731792#1 290731792#2 290731792#3 290731846 1107348161 91264191#0 827063325#0 827063325#0.102 1152555749 1044159490#0 1044159490#1 1044159490#2 1044159491 1044159492 183697893 90888272 90888302 1147711776#0"/>
    </vehicle>
    <vehicle id="37" depart="37.00" departPos="69.90" arrivalPos="85.42">
        <route edges="1064645867 23236879 826449813 827063322#0 827063322#1 827063322#1.69 23276957 1066826599 5169941 90888385 747087382#0 747087382#1 747087382#2 747087382#4 931984378#0 931984378#1 1089138640 317270969 1101578760 1148450970 1148450970-AddedOffRampEdge 332620678#0 91286826 1041142285#0 826449815 183322883#0 183322883#3 183322883#7 432870062#2 432870062#3 432870062#3-AddedOffRampEdge 432870062#5 227463510#0 228376424 -228376424 228375342#0"/>
    </vehicle>
    <vehicle id="38" depart="38.00" departPos="28.58" arrivalPos="21.17">
        <route edges="561590398#0 561590398#0-AddedOffRampEdge 1101798631 1101798631.209 1101798631.928 1115520573 638011104 312194207#0-AddedOnRampEdge 312194207#0 312194207#1-AddedOnRampEdge 312194207#1 312194207#2 312194207#3 312194207#5-AddedOnRampEdge 312194207#5 312194207#5-AddedOffRampEdge"/>
    </vehicle>
    <vehicle id="41" depart="41.00" departPos="130.37" arrivalPos="15.59">
        <route edges="837903918#0 837903918#11 837903918#11.71 837903918#13 42141136#0 1160053324#0 1160053324#2 1160053324#3 1160053324#6 443790676#0 443790676#1 443790676#2 443790676#3 443790676#4 1150725755#0 827063324 5169873 1035804767 827063325#0 827063325#0.102 1152555749 1044159490#0 1044159490#1 1044159490#2 1044159491 1044159492 183697893 90888272 90888302 1147711776#0 880759177#0 711295528 1017327565 1017327567#0 1017327567#3-AddedOnRampEdge 1017327567#3 1150257895 312194207#0-AddedOnRampEdge 312194207#0 312194207#1-AddedOnRampEdge 312194207#1 290771161 330110159#1 228361005 183429335 -484922259#1 -484922259#0 -183429229#2 -228360704#1 -228360704#0 374051237#2 -374051237#2"/>
    </vehicle>
    <vehicle id="42" depart="42.00" departPos="81.15" arrivalPos="74.90">
        <route edges="329581607#1 329581607#3 329581607#4 1011998935#0 1011998935#2 1011998935#3 1011998935#4 910632856#0 910632856#1 910632856#6 939444511 931813833 931815218 183697660#0 183697660#1 183697660#1.133 183697660#3 1033521274 1050713028 290731792#0 290731792#1 290731792#2 290731792#3 290731846 1107348161 91264191#0 827063325#0 827063325#0.102 1152555749 1044159490#0 1044159490#1 1044159490#2 1044159491 1044159492 183697893 90888272 90888302 1147711773 260976353 1147711771 90888271 300399531#0 1044159495"/>
    </vehicle>
    <vehicle id="43" depart="43.00" departPos="190.76" arrivalPos="87.99">
        <route edges="561590398#0 561590398#0-AddedOffRampEdge 1101798632 905472877 905472876 1159235273 827491212#0 827491212#1 827491212#3 827491212#4 1066536034#0 1066536038 904287742 91227581 887295434 1101578762#0 1101578762#1 91227580 747087387 1089138646 747087386 1144466566#0 1144466566#4 931815219 1066826596 5169943 23276976 23276966#0 5170334#0 5170334#1 5170334#4 1112371617#0 1112371611#0 1112371614 1164913793 1164913795 1164913794#0 1164913794#2 1164913794#3 25539026#0 827063324 5169873"/>
    </vehicle>
    <vehicle id="44" depart="44.00" departPos="29.75" arrivalPos="23.20">
        <route edges="1064645867 23236879 826449813 23639695 23639778 5170334#0 5170334#1 5170334#4 1112371617#0 1112371611#0 1112371614 1164913793 1164913795 1164913794#0 1164913794#2 1164913794#3 183743129#0 1107348164#0 25539025#0 25539025#1 25539025#2"/>
    </vehicle>
    <vehicle id="46" depart="46.00" departPos="203.55" arrivalPos="11.60">
        <route edges="561590398#0 561590398#0-AddedOffRampEdge 1101798632 905472877 905472876 1159235273 827491212#0 827491212#1 827491212#3 1066536040#1 25542639#0 25542639#1 25542639#2 25542639#3 25542639#4 25542639#6 25542639#7 25542635#0 25542635#3 229367549#0 229367549#1 24827552#3 24827552#4 229367550#0 229367550#1"/>
    </vehicle>
    <vehicle id="47" depart="47.00" departPos="29.63" arrivalPos="56.86">
        <route edges="1064645867 23236879 826449813 827063322#0 827063322#1 827063322#1.69 23276957 1066826599 5169941 90888385 747087382#0 747087382#1 747087382#2 747087382#4 931984378#0 931984378#1 1089138640 317270969 1101578760 1148450970 1148450970-AddedOffRampEdge 332620678#0 91286826 1041142285#0 826449815 183322883#0 183322883#3 183322883#7 432870062#2 432870062#3 432870062#3-AddedOffRampEdge 432870062#5 227463510#0 228376424 28351006#1 28351006#2 1112540828 485179713 28350736#0"/>
    </vehicle>
    <vehicle id="48" depart="48.00" departPos="38.44" arrivalPos="44.97">
        <route edges="329581607#1 329581607#3 329581607#4 1011998935#0 1011998935#2 1011998935#3 1011998935#4 910632856#0 910632856#1 910632856#6 939444511 931813833 931815218 183697660#0 183697660#1 183697660#1.133 183697660#3 1033521274 1050713028 290731792#0 290731792#1 290731792#2 290731792#3 290731846 1107348161 91264191#0 827063325#0 827063325#0.102 1152555749 1044159490#0 1044159490#1 1044159490#2 1044159491 1044159492 183697893 90888272 90888302"/>
    </vehicle>
    <vehicle id="49" depart="49.00" departPos="236.06" arrivalPos="446.92">
        <route edges="561590398#0 561590398#0-AddedOffRampEdge 1101798631 1101798631.209 1101798631.928 1115520573 1115520572 880759175#0-AddedOnRampEdge 880759175#0 880759175#5 1017327563#0 1017327563#0.235 1017327563#0.312 1147720153#0 711292924#0 711292924#0.803 722760572#0 722760573#0 1147711771 90888271 300399531#0 1044159495 1044159494#0 183697894#0 183697894#0-AddedOffRampEdge 4885626#0 931813835 4885624 931813837 25539025#0 25539025#1 25539025#2 25539025#4 25539025#6 25539025#7 25539025#8 25539025#9 25539025#10 25539025#12 886025395#0 1035804753#0 158452642#0 837903918#11 837903918#11.71 837903918#13 1160053322#0 1119891201#0 1160053323 37278621#0 37278621#2 37278621#3 37278621#4 25562609#0 25562609#2 25562609#3 -25562609#3"/>
    </vehicle>
    <vehicle id="50" depart="50.00" departPos="464.87" arrivalPos="42.28">
        <route edges="837903918#0 837903918#11 837903918#11.71 837903918#13 42141136#0 1160053324#0 1160053324#2 1160053324#3 1160053324#6 443790676#0 443790676#1 443790676#2 443790676#3 443790676#4 1150725755#0 827063324 5169873 91264144 827063326 931813831 910632857 1006582996 1181770075 1181770075.112 1181770075.209 1181770075.209.153 967292584 967292583 91264109 5169941 90888385 747087382#0 747087382#1 747087382#2 747087382#4 931984378#0 931984378#1 1089138640 317270969 1101578760 1148450970 1148450970-AddedOffRampEdge 826449814 1101798644#0 887295435 91227588 677315596 91227584#0 1101798638 1101798639#0 1101798639#1 90888359"/>
    </vehicle>
    <vehicle id="51" depart="51.00" departPos="94.74" arrivalPos="88.40">
        <route edges="561590398#0 561590398#0-AddedOffRampEdge 1101798632 905472877 905472876 1159235273 827491212#0 827491212#1 827491212#3 827491212#4 1066536034#0 1066536038 904287742 91227581 887295434 1101578762#0 1101578762#1 91227580 747087387 1089138646 747087386 1144466566#0 1144466566#4 91264104#0 91264104#1 91264104#2 183697660#0 183697660#1 183697660#1.133 183697660#3 1033521274 1050713028 290731792#0 290731792#1 290731792#2 290731792#3 290731846 1107348161 91264191#0 827063325#0 827063325#0.102 1152555749 1044159490#0 1044159490#1 1044159490#2 1044159491 1044159492 183697893 90888272 90888302 1147711776#0"/>
    </vehicle>
    <vehicle id="52" depart="52.00" departPos="62.65" arrivalPos="164.51">
        <route edges="561590398#0 561590398#0-AddedOffRampEdge 1101798632 905472877 905472876 1159235273 827491212#0 827491212#1 827491212#3 827491212#4 1066536034#0 1066536038 904287742 91227581 887295434 1101578762#0 1101578762#1 91227580 747087387 1089138646 747087386 1144466566#0 1144466566#4 931815219 1066826596 91264115 967292583 91264109 5169941 90888385 747087382#0 747087382#1 747087382#2 747087382#4 931815222"/>
    </vehicle>
    <vehicle id="53" depart="53.00" departPos="226.15" arrivalPos="123.70">
        <route edges="561590398#0 561590398#0-AddedOffRampEdge 1101798631 1101798631.209 1101798631.928 1115520573 1115520572 880759175#0-AddedOnRampEdge 880759175#0 307930836#0 307930836#0.35 307930836#0.79 1017327565 229361942#0 -104061367#1 -102637263#1 303179752#1 303179752#2 -303179748#1 -335354538#0 303184885#0 303184885#1 229361930#0 229361930#1 229361930#2 -303186571#3 25302147#1 25302131#0 25302131#1 303186567 25301472"/>
    </vehicle>
    <vehicle id="57" depart="57.00" departPos="5.63" arrivalPos="1.18">
        <route edges="1064645867 23236879 826449813 23639695 23639778 5170334#0 5170334#1 5170334#4 1112371617#0 1112371611#0 1112371614 1164913793 1164913795 1164913794#0 1164913794#2 1164913794#3 25539026#0 827063324 5169873 91264144 827063326 931813831 910632857 91264137"/>
    </vehicle>
    <vehicle id="59" depart="59.00" departPos="325.65" arrivalPos="59.91">
        <route edges="837903918#0 837903918#11 837903918#11.71 837903918#13 42141136#0 1160053324#0 1160053324#2 1160053324#3 1160053324#6 443790676#0 443790676#1 443790676#2 443790676#3 443790676#4 1150725755#0 827063324 5169873 91264144 827063326 931813831 910632857 1006582996 1181770075 1181770075.112"/>
    </vehicle>
    <vehicle id="62" depart="62.00" departPos="74.69" arrivalPos="97.19">
        <route edges="561590398#0 561590398#0-AddedOffRampEdge 1101798632 905472877 905472876 1159235273 827491212#0 827491212#1 827491212#3 827491212#4 1066536034#0 1066536038 904287742 91227581 887295434 1101578762#0 1101578762#1 303758270#0 303758270#1 183322883#3 183322883#7 432870062#2 432870062#3 432870062#3-AddedOffRampEdge 432870062#5 227463510#0"/>
    </vehicle>
    <vehicle id="63" depart="63.00" departPos="70.13" arrivalPos="43.41">
        <route edges="1064645867 23236879 826449813 827063322#0 827063322#1 827063322#1.69 23276957 1066826599 5169941 90888385 747087382#0 747087382#1 747087382#2 747087382#4 931984378#0 931984378#1 1089138640 317270965 747087378#1 317270976 685685426#0 685685426#3 28351102#0 28351102#1 228374133#0 228374133#1 228374133#2 28351554#0"/>
    </vehicle>
    <vehicle id="64" depart="64.00" departPos="18.63" arrivalPos="1407.05">
        <route edges="1064645867 23236879 826449813 23639695 23639778 5170334#0 5170334#1 5170334#4 1112371617#0 1112371611#0 1112371614 1164913793 1164913795 1164913794#0 1164913794#2 1164913794#3 25539026#0 827063324 5169873 1035804767 827063325#0 827063325#0.102 1152555749 1044159490#0 1044159490#1 1044159490#2 1044159491 1044159492 183697893 90888272 90888302 1147711776#0"/>
    </vehicle>
    <vehicle id="65" depart="65.00" departPos="202.41" arrivalPos="41.06">
        <route edges="837903918#0 837903918#11 837903918#11.71 837903918#13 42141136#0 1160053324#0 1160053324#2 1160053324#3 1160053324#6 443790676#0 443790676#1 443790676#2 443790676#3 443790676#4 1150725755#0 827063324 5169873 1035804767 827063325#0 827063325#0.102"/>
    </vehicle>
    <vehicle id="67" depart="67.00" departPos="193.02" arrivalPos="6.01">
        <route edges="561590398#0 561590398#0-AddedOffRampEdge 1101798632 905472877 905472876 1159235273 827491212#0 827491212#1 827491212#3 827491212#4 1066536034#0 1066536038 904287742 91227581 887295434 1101578762#0 1101578762#1 91227580 747087387 1089138646 747087386 1144466566#0 1144466566#4 931815219 1066826596 5169943 23276976 23276966#0 5170334#0 5170334#1 5170334#4 1112371617#0 1112371611#0 1112371614 1164913793 1164913795 1164913794#0 1164913794#2 -1149844832"/>
    </vehicle>
    <vehicle id="68" depart="68.00" departPos="31.72" arrivalPos="40.11">