
    <routes xmlns:xsi="http://www.w3.org/2001/XMLSchema-instance" xsi:noNamespaceSchemaLocation="http://sumo.dlr.de/xsd/routes_file.xsd">
      
      <!-- kasimpasa_kabatas -> karakoy -->
      <flow id="1000001"
            departLane="allowed" departSpeed="desired" departPos="last"
            from="28585046#6" to="158452644#1"
            begin="0" end="4800" number="400" />
    
      <!-- kasimpasa_kabatas -> ibb -->
      <flow id="1000002"
            departLane="allowed" departSpeed="desired" departPos="last"
            from="28585046#6" to="1101578763#3"
            begin="0" end="4800" number="533" />
    
      <!-- kasimpasa_kabatas -> yenikapi -->
      <flow id="1000003"
            departLane="allowed" departSpeed="desired" departPos="last"
            from="28585046#6" to="83477315"
            begin="0" end="4800" number="800" />
    
      <!-- kasimpasa_kabatas -> fener -->
      <flow id="1000004"
            departLane="allowed" departSpeed="desired" departPos="last"
            from="28585046#6" to="329581449#3"
            begin="0" end="4800" number="667" />
    
      <!-- karakoy -> fener -->
      <flow id="1000005"
            departLane="allowed" departSpeed="desired" departPos="last"
            from="837903918#0" to="329581449#3"
            begin="0" end="4800" number="267" />
    
      <!-- karakoy -> yenikapi -->
      <flow id="1000006"
            departLane="allowed" departSpeed="desired" departPos="last"
            from="837903918#0" to="83477315"
            begin="0" end="4800" number="400" />
    
      <!-- karakoy -> kasimpasa_kabatas -->
      <flow id="1000007"
            departLane="allowed" departSpeed="desired" departPos="last"
            from="837903918#0" to="23639745#2"
            begin="0" end="4800" number="1333" />
    
      <!-- karakoy -> ibb -->
      <flow id="1000008"
            departLane="allowed" departSpeed="desired" departPos="last"
            from="837903918#0" to="1101578763#3"
            begin="0" end="4800" number="1067" />
    
      <!-- fener -> yenikapi -->
      <flow id="1000009"
            departLane="allowed" departSpeed="desired" departPos="last"
            from="329581607#1" to="83477315"
            begin="0" end="4800" number="267" />
    
      <!-- fener -> ibb -->
      <flow id="1000010"
            departLane="allowed" departSpeed="desired" departPos="last"
            from="329581607#1" to="1101578763#3"
            begin="0" end="4800" number="133" />
    
      <!-- fener -> kasimpasa_kabatas -->
      <flow id="1000011"
            departLane="allowed" departSpeed="desired" departPos="last"
            from="329581607#1" to="23639745#2"
            begin="0" end="4800" number="267" />
    
      <!-- fener -> karakoy -->
      <flow id="1000012"
            departLane="allowed" departSpeed="desired" departPos="last"
            from="329581607#1" to="158452644#1"
            begin="0" end="4800" number="533" />
    
      <!-- yenikapi_avrasya -> avrasya -->
      <flow id="1000013"
            departLane="allowed" departSpeed="desired" departPos="last"
            from="469405656" to="332219146"
            begin="0" end="4800" number="1600" />
    
      <!-- avrasya -> yenikapi_avrasya -->
      <flow id="1000014"
            departLane="allowed" departSpeed="desired" departPos="last"
            from="405768177" to="461081394#0"
            begin="0" end="4800" number="1600" />
    
      <!-- yenikapi -> ibb -->
      <flow id="1000015"
            departLane="allowed" departSpeed="desired" departPos="last"
            from="561590398#0" to="1101578763#3"
            begin="0" end="4800" number="133" />
    
      <!-- yenikapi -> kasimpasa_kabatas -->
      <flow id="1000016"
            departLane="allowed" departSpeed="desired" departPos="last"
            from="561590398#0" to="23639745#2"
            begin="0" end="4800" number="1200" />
    
      <!-- yenikapi -> karakoy -->
      <flow id="1000017"
            departLane="allowed" departSpeed="desired" departPos="last"
            from="561590398#0" to="158452644#1"
            begin="0" end="4800" number="1067" />
    
      <!-- yenikapi -> fener -->
      <flow id="1000018"
            departLane="allowed" departSpeed="desired" departPos="last"
            from="561590398#0" to="329581449#3"
            begin="0" end="4800" number="667" />
    
      <!-- kasimpasa_kabatas -> otopark -->
      <flow id="1002641"
            departLane="allowed" departSpeed="desired" departPos="last"
            arrivalLane="0" arrivalSpeed="0.0" arrivalPos="random" 
            from="28585046#6" to="24826715#4"
            begin="0" end="10" number="1" />
    

      <!-- otopark -> kasimpasa_kabatas -->
      <flow id="1003803"
            departLane="allowed" departSpeed="desired" departPos="last"
            from="695775279#2" to="23639745#2"
            begin="0" end="10" number="1" />
    

      <!-- yenikapi -> otopark -->
      <flow id="1006510"
            departLane="allowed" departSpeed="desired" departPos="last"
            arrivalLane="0" arrivalSpeed="0.0" arrivalPos="random" 
            from="561590398#0" to="432870062#2"
            begin="0" end="10" number="1" />
    

      <!-- fener -> otopark -->
      <flow id="1000429"
            departLane="allowed" departSpeed="desired" departPos="last"
            arrivalLane="0" arrivalSpeed="0.0" arrivalPos="random" 
            from="329581607#1" to="1107348161"
            begin="1" end="11" number="1" />
    

      <!-- otopark -> ibb -->
      <flow id="1010971"
            departLane="allowed" departSpeed="desired" departPos="last"
            from="1107348161" to="1101578763#3"
            begin="1" end="11" number="1" />
    

      <!-- fener -> otopark -->
      <flow id="1000527"
            departLane="allowed" departSpeed="desired" departPos="last"
            arrivalLane="0" arrivalSpeed="0.0" arrivalPos="random" 
            from="329581607#1" to="-gneE1"
            begin="2" end="12" number="1" />
    

      <!-- kasimpasa_kabatas -> otopark -->
      <flow id="1002792"
            departLane="allowed" departSpeed="desired" departPos="last"
            arrivalLane="0" arrivalSpeed="0.0" arrivalPos="random" 
            from="28585046#6" to="gneE3"
            begin="2" end="12" number="1" />
    

      <!-- otopark -> yenikapi -->
      <flow id="1008315"
            departLane="allowed" departSpeed="desired" departPos="last"
            from="432870062#2" to="83477315"
            begin="2" end="12" number="1" />
    

      <!-- otopark -> karakoy -->
      <flow id="1009597"
            departLane="allowed" departSpeed="desired" departPos="last"
            from="gneE6" to="158452644#1"
            begin="2" end="12" number="1" />
    

      <!-- otopark -> kasimpasa_kabatas -->
      <flow id="1003900"
            departLane="allowed" departSpeed="desired" departPos="last"
            from="gneE6" to="23639745#2"
            begin="3" end="13" number="1" />
    

      <!-- otopark -> yenikapi -->
      <flow id="1007372"
            departLane="allowed" departSpeed="desired" departPos="last"
            from="183697660#1" to="83477315"
            begin="3" end="13" number="1" />
    

      <!-- kasimpasa_kabatas -> otopark -->
      <flow id="1002473"
            departLane="allowed" departSpeed="desired" departPos="last"
            arrivalLane="0" arrivalSpeed="0.0" arrivalPos="random" 
            from="28585046#6" to="-gneE1"
            begin="6" end="16" number="1" />
    

      <!-- yenikapi -> otopark -->
      <flow id="1005077"
            departLane="allowed" departSpeed="desired" departPos="last"
            arrivalLane="0" arrivalSpeed="0.0" arrivalPos="random" 
            from="561590398#0" to="290731846"
            begin="6" end="16" number="1" />
    

      <!-- karakoy -> otopark -->
      <flow id="1008737"
            departLane="allowed" departSpeed="desired" departPos="last"
            arrivalLane="0" arrivalSpeed="0.0" arrivalPos="random" 
            from="837903918#0" to="-gneE1"
            begin="6" end="16" number="1" />
    

      <!-- otopark -> karakoy -->
      <flow id="1009011"
            departLane="allowed" departSpeed="desired" departPos="last"
            from="303876068#1" to="158452644#1"
            begin="6" end="16" number="1" />
    

      <!-- kasimpasa_kabatas -> otopark -->
      <flow id="1002465"
            departLane="allowed" departSpeed="desired" departPos="last"
            arrivalLane="0" arrivalSpeed="0.0" arrivalPos="random" 
            from="28585046#6" to="-gneE1"
            begin="7" end="17" number="1" />
    

      <!-- karakoy -> otopark -->
      <flow id="1008576"
            departLane="allowed" departSpeed="desired" departPos="last"
            arrivalLane="0" arrivalSpeed="0.0" arrivalPos="random" 
            from="837903918#0" to="303876068#1"
            begin="7" end="17" number="1" />
    

      <!-- otopark -> karakoy -->
      <flow id="1009773"
            departLane="allowed" departSpeed="desired" departPos="last"
            from="1144466566#0" to="158452644#1"
            begin="7" end="17" number="1" />
    

      <!-- fener -> otopark -->
      <flow id="1000906"
            departLane="allowed" departSpeed="desired" departPos="last"
            arrivalLane="0" arrivalSpeed="0.0" arrivalPos="random" 
            from="329581607#1" to="gneE6"
            begin="8" end="18" number="1" />
    

      <!-- yenikapi -> otopark -->
      <flow id="1005304"
            departLane="allowed" departSpeed="desired" departPos="last"
            arrivalLane="0" arrivalSpeed="0.0" arrivalPos="random" 
            from="561590398#0" to="-gneE1"
            begin="8" end="18" number="1" />
    

      <!-- karakoy -> otopark -->
      <flow id="1008833"
            departLane="allowed" departSpeed="desired" departPos="last"
            arrivalLane="0" arrivalSpeed="0.0" arrivalPos="random" 
            from="837903918#0" to="695775279#2"
            begin="8" end="18" number="1" />
    

      <!-- ibb -> otopark -->
      <flow id="1009870"
            departLane="allowed" departSpeed="desired" departPos="last"
            arrivalLane="0" arrivalSpeed="0.0" arrivalPos="random" 
            from="692988380#0" to="112392945#4"
            begin="8" end="18" number="1" />
    

      <!-- otopark -> karakoy -->
      <flow id="1009699"
            departLane="allowed" departSpeed="desired" departPos="last"
            from="432870062#3-AddedOffRampEdge" to="158452644#1"
            begin="9" end="19" number="1" />
    

      <!-- kasimpasa_kabatas -> otopark -->
      <flow id="1002932"
            departLane="allowed" departSpeed="desired" departPos="last"
            arrivalLane="0" arrivalSpeed="0.0" arrivalPos="random" 
            from="28585046#6" to="432870062#2"
            begin="10" end="20" number="1" />
    

      <!-- yenikapi -> otopark -->
      <flow id="1006169"
            departLane="allowed" departSpeed="desired" departPos="last"
            arrivalLane="0" arrivalSpeed="0.0" arrivalPos="random" 
            from="561590398#0" to="695775279#5"
            begin="10" end="20" number="1" />
    

      <!-- ibb -> otopark -->
      <flow id="1010234"
            departLane="allowed" departSpeed="desired" departPos="last"
            arrivalLane="0" arrivalSpeed="0.0" arrivalPos="random" 
            from="692988380#0" to="24806146#2"
            begin="10" end="20" number="1" />
    

      <!-- ibb -> otopark -->
      <flow id="1010315"
            departLane="allowed" departSpeed="desired" departPos="last"
            arrivalLane="0" arrivalSpeed="0.0" arrivalPos="random" 
            from="692988380#0" to="-1149844832"
            begin="10" end="20" number="1" />
    

      <!-- kasimpasa_kabatas -> otopark -->
      <flow id="1003101"
            departLane="allowed" departSpeed="desired" departPos="last"
            arrivalLane="0" arrivalSpeed="0.0" arrivalPos="random" 
            from="28585046#6" to="1144466566#0"
            begin="11" end="21" number="1" />
    

      <!-- kasimpasa_kabatas -> otopark -->
      <flow id="1002362"
            departLane="allowed" departSpeed="desired" departPos="last"
            arrivalLane="0" arrivalSpeed="0.0" arrivalPos="random" 
            from="28585046#6" to="-gneE1"
            begin="12" end="22" number="1" />
    

      <!-- fener -> otopark -->
      <flow id="1000473"
            departLane="allowed" departSpeed="desired" departPos="last"
            arrivalLane="0" arrivalSpeed="0.0" arrivalPos="random" 
            from="329581607#1" to="-gneE1"
            begin="13" end="23" number="1" />
    

      <!-- fener -> otopark -->
      <flow id="1000833"
            departLane="allowed" departSpeed="desired" departPos="last"
            arrivalLane="0" arrivalSpeed="0.0" arrivalPos="random" 
            from="329581607#1" to="695775279#5"
            begin="13" end="23" number="1" />
    

      <!-- otopark -> ibb -->
      <flow id="1011421"
            departLane="allowed" departSpeed="desired" departPos="last"
            from="1144466566#0" to="1101578763#3"
            begin="13" end="23" number="1" />
    

      <!-- otopark -> kasimpasa_kabatas -->
      <flow id="1003697"
            departLane="allowed" departSpeed="desired" departPos="last"
            from="24806146#2" to="23639745#2"
            begin="14" end="24" number="1" />
    

      <!-- yenikapi -> otopark -->
      <flow id="1004506"
            departLane="allowed" departSpeed="desired" departPos="last"
            arrivalLane="0" arrivalSpeed="0.0" arrivalPos="random" 
            from="561590398#0" to="183297162#3"
            begin="14" end="24" number="1" />
    

      <!-- yenikapi -> otopark -->
      <flow id="1006747"
            departLane="allowed" departSpeed="desired" departPos="last"
            arrivalLane="0" arrivalSpeed="0.0" arrivalPos="random" 
            from="561590398#0" to="432870062#3-AddedOffRampEdge"
            begin="14" end="24" number="1" />
    

      <!-- yenikapi -> otopark -->
      <flow id="1006713"
            departLane="allowed" departSpeed="desired" departPos="last"
            arrivalLane="0" arrivalSpeed="0.0" arrivalPos="random" 
            from="561590398#0" to="432870062#3-AddedOffRampEdge"
            begin="15" end="25" number="1" />
    

      <!-- ibb -> otopark -->
      <flow id="1010271"
            departLane="allowed" departSpeed="desired" departPos="last"
            arrivalLane="0" arrivalSpeed="0.0" arrivalPos="random" 
            from="692988380#0" to="24806073#8"
            begin="15" end="25" number="1" />
    

      <!-- kasimpasa_kabatas -> otopark -->
      <flow id="1002151"
            departLane="allowed" departSpeed="desired" departPos="last"
            arrivalLane="0" arrivalSpeed="0.0" arrivalPos="random" 
            from="28585046#6" to="183697660#1"
            begin="16" end="26" number="1" />
    

      <!-- yenikapi -> otopark -->
      <flow id="1004401"
            departLane="allowed" departSpeed="desired" departPos="last"
            arrivalLane="0" arrivalSpeed="0.0" arrivalPos="random" 
            from="561590398#0" to="112392945#4"
            begin="16" end="26" number="1" />
    

      <!-- otopark -> fener -->
      <flow id="1001302"
            departLane="allowed" departSpeed="desired" departPos="last"
            from="183697660#1" to="329581449#3"
            begin="17" end="27" number="1" />
    

      <!-- kasimpasa_kabatas -> otopark -->
      <flow id="1002121"
            departLane="allowed" departSpeed="desired" departPos="last"
            arrivalLane="0" arrivalSpeed="0.0" arrivalPos="random" 
            from="28585046#6" to="183697660#1"
            begin="17" end="27" number="1" />
    

      <!-- kasimpasa_kabatas -> otopark -->
      <flow id="1002311"
            departLane="allowed" departSpeed="desired" departPos="last"
            arrivalLane="0" arrivalSpeed="0.0" arrivalPos="random" 
            from="28585046#6" to="-gneE1"
            begin="17" end="27" number="1" />
    

      <!-- karakoy -> otopark -->
      <flow id="1008622"
            departLane="allowed" departSpeed="desired" departPos="last"
            arrivalLane="0" arrivalSpeed="0.0" arrivalPos="random" 
            from="837903918#0" to="183297162#2"
            begin="17" end="27" number="1" />
    

      <!-- otopark -> karakoy -->
      <flow id="1009269"
            departLane="allowed" departSpeed="desired" departPos="last"
            from="290731846" to="158452644#1"
            begin="17" end="27" number="1" />
    

      <!-- otopark -> ibb -->
      <flow id="1011267"
            departLane="allowed" departSpeed="desired" departPos="last"
            from="gneE6" to="1101578763#3"
            begin="17" end="27" number="1" />
    

      <!-- otopark -> fener -->
      <flow id="1001274"
            departLane="allowed" departSpeed="desired" departPos="last"
            from="183297162#2" to="329581449#3"
            begin="18" end="28" number="1" />
    

      <!-- yenikapi -> otopark -->
      <flow id="1005104"
            departLane="allowed" departSpeed="desired" departPos="last"
            arrivalLane="0" arrivalSpeed="0.0" arrivalPos="random" 
            from="561590398#0" to="290731846"
            begin="19" end="29" number="1" />
    

      <!-- kasimpasa_kabatas -> otopark -->
      <flow id="1002480"
            departLane="allowed" departSpeed="desired" departPos="last"
            arrivalLane="0" arrivalSpeed="0.0" arrivalPos="random" 
            from="28585046#6" to="24806146#5"
            begin="20" end="30" number="1" />
    

      <!-- kasimpasa_kabatas -> otopark -->
      <flow id="1002718"
            departLane="allowed" departSpeed="desired" departPos="last"
            arrivalLane="0" arrivalSpeed="0.0" arrivalPos="random" 
            from="28585046#6" to="695775279#4"
            begin="21" end="31" number="1" />
    

      <!-- otopark -> karakoy -->
      <flow id="1009300"
            departLane="allowed" departSpeed="desired" departPos="last"
            from="1107348161" to="158452644#1"
            begin="21" end="31" number="1" />
    

      <!-- fener -> otopark -->
      <flow id="1000386"
            departLane="allowed" departSpeed="desired" departPos="last"
            arrivalLane="0" arrivalSpeed="0.0" arrivalPos="random" 
            from="329581607#1" to="290731846"
            begin="22" end="32" number="1" />
    

      <!-- yenikapi -> otopark -->
      <flow id="1006792"
            departLane="allowed" departSpeed="desired" departPos="last"
            arrivalLane="0" arrivalSpeed="0.0" arrivalPos="random" 
            from="561590398#0" to="1144466566#0"
            begin="22" end="32" number="1" />
    

      <!-- otopark -> ibb -->
      <flow id="1010665"
            departLane="allowed" departSpeed="desired" departPos="last"
            from="303876068#1" to="1101578763#3"
            begin="22" end="32" number="1" />
    

      <!-- fener -> otopark -->
      <flow id="1000969"
            departLane="allowed" departSpeed="desired" departPos="last"
            arrivalLane="0" arrivalSpeed="0.0" arrivalPos="random" 
            from="329581607#1" to="432870062#2"
            begin="23" end="33" number="1" />
    

      <!-- kasimpasa_kabatas -> otopark -->
      <flow id="1003007"
            departLane="allowed" departSpeed="desired" departPos="last"
            arrivalLane="0" arrivalSpeed="0.0" arrivalPos="random" 
            from="28585046#6" to="432870062#3-AddedOffRampEdge"
            begin="23" end="33" number="1" />
    

      <!-- yenikapi -> otopark -->
      <flow id="1006716"
            departLane="allowed" departSpeed="desired" departPos="last"
            arrivalLane="0" arrivalSpeed="0.0" arrivalPos="random" 
            from="561590398#0" to="432870062#3-AddedOffRampEdge"
            begin="25" end="35" number="1" />
    

      <!-- yenikapi -> otopark -->
      <flow id="1004227"
            departLane="allowed" departSpeed="desired" departPos="last"
            arrivalLane="0" arrivalSpeed="0.0" arrivalPos="random" 
            from="561590398#0" to="303876068#1"
            begin="26" end="36" number="1" />
    

      <!-- yenikapi -> otopark -->
      <flow id="1006549"
            departLane="allowed" departSpeed="desired" departPos="last"
            arrivalLane="0" arrivalSpeed="0.0" arrivalPos="random" 
            from="561590398#0" to="432870062#2"
            begin="26" end="36" number="1" />
    

      <!-- otopark -> karakoy -->
      <flow id="1009160"
            departLane="allowed" departSpeed="desired" departPos="last"
            from="183697660#1" to="158452644#1"
            begin="26" end="36" number="1" />
    

      <!-- otopark -> ibb -->
      <flow id="1010832"
            departLane="allowed" departSpeed="desired" departPos="last"
            from="183697660#1" to="1101578763#3"
            begin="26" end="36" number="1" />
    

      <!-- fener -> otopark -->
      <flow id="1000067"
            departLane="allowed" departSpeed="desired" departPos="last"
            arrivalLane="0" arrivalSpeed="0.0" arrivalPos="random" 
            from="329581607#1" to="330106626#5"
            begin="28" end="38" number="1" />
    

      <!-- otopark -> yenikapi -->
      <flow id="1007381"
            departLane="allowed" departSpeed="desired" departPos="last"
            from="183697660#1" to="83477315"
            begin="28" end="38" number="1" />
    

      <!-- otopark -> yenikapi -->
      <flow id="1008229"
            departLane="allowed" departSpeed="desired" departPos="last"
            from="432870062#2" to="83477315"
            begin="28" end="38" number="1" />
    

      <!-- otopark -> karakoy -->
      <flow id="1009694"
            departLane="allowed" departSpeed="desired" departPos="last"
            from="432870062#3-AddedOffRampEdge" to="158452644#1"
            begin="29" end="39" number="1" />
    

      <!-- otopark -> ibb -->
      <flow id="1010834"
            departLane="allowed" departSpeed="desired" departPos="last"
            from="183697660#1" to="1101578763#3"
            begin="30" end="40" number="1" />
    

      <!-- kasimpasa_kabatas -> otopark -->
      <flow id="1002985"
            departLane="allowed" departSpeed="desired" departPos="last"
            arrivalLane="0" arrivalSpeed="0.0" arrivalPos="random" 
            from="28585046#6" to="432870062#2"
            begin="31" end="41" number="1" />
    

      <!-- otopark -> kasimpasa_kabatas -->
      <flow id="1003237"
            departLane="allowed" departSpeed="desired" departPos="last"
            from="330106626#5" to="23639745#2"
            begin="31" end="41" number="1" />
    

      <!-- otopark -> kasimpasa_kabatas -->
      <flow id="1003517"
            departLane="allowed" departSpeed="desired" departPos="last"
            from="290731846" to="23639745#2"
            begin="31" end="41" number="1" />
    

      <!-- otopark -> yenikapi -->
      <flow id="1007978"
            departLane="allowed" departSpeed="desired" departPos="last"
            from="695775279#2" to="83477315"
            begin="31" end="41" number="1" />
    

      <!-- yenikapi -> otopark -->
      <flow id="1004839"
            departLane="allowed" departSpeed="desired" departPos="last"
            arrivalLane="0" arrivalSpeed="0.0" arrivalPos="random" 
            from="561590398#0" to="183697660#1"
            begin="32" end="42" number="1" />
    

      <!-- yenikapi -> otopark -->
      <flow id="1006055"
            departLane="allowed" departSpeed="desired" departPos="last"
            arrivalLane="0" arrivalSpeed="0.0" arrivalPos="random" 
            from="561590398#0" to="695775279#4"
            begin="32" end="42" number="1" />
    

      <!-- otopark -> yenikapi -->
      <flow id="1007706"
            departLane="allowed" departSpeed="desired" departPos="last"
            from="gneE1" to="83477315"
            begin="32" end="42" number="1" />
    

      <!-- fener -> otopark -->
      <flow id="1001160"
            departLane="allowed" departSpeed="desired" departPos="last"
            arrivalLane="0" arrivalSpeed="0.0" arrivalPos="random" 
            from="329581607#1" to="1144466566#0"
            begin="33" end="43" number="1" />
    

      <!-- otopark -> yenikapi -->
      <flow id="1007124"
            departLane="allowed" departSpeed="desired" departPos="last"
            from="112392945#4" to="83477315"
            begin="33" end="43" number="1" />
    

      <!-- ibb -> otopark -->
      <flow id="1009846"
            departLane="allowed" departSpeed="desired" departPos="last"
            arrivalLane="0" arrivalSpeed="0.0" arrivalPos="random" 
            from="692988380#0" to="112392945#5"
            begin="33" end="43" number="1" />
    

      <!-- otopark -> ibb -->
      <flow id="1011038"
            departLane="allowed" departSpeed="desired" departPos="last"
            from="24806146#5" to="1101578763#3"
            begin="33" end="43" number="1" />
    

      <!-- otopark -> fener -->
      <flow id="1001490"
            departLane="allowed" departSpeed="desired" departPos="last"
            from="24806146#2" to="329581449#3"
            begin="35" end="45" number="1" />
    

      <!-- kasimpasa_kabatas -> otopark -->
      <flow id="1002474"
            departLane="allowed" departSpeed="desired" departPos="last"
            arrivalLane="0" arrivalSpeed="0.0" arrivalPos="random" 
            from="28585046#6" to="-gneE1"
            begin="35" end="45" number="1" />
    

      <!-- otopark -> kasimpasa_kabatas -->
      <flow id="1003274"
            departLane="allowed" departSpeed="desired" departPos="last"
            from="112392945#4" to="23639745#2"
            begin="35" end="45" number="1" />
    

      <!-- otopark -> ibb -->
      <flow id="1011290"
            departLane="allowed" departSpeed="desired" departPos="last"
            from="432870062#2" to="1101578763#3"
            begin="35" end="45" number="1" />
    

      <!-- kasimpasa_kabatas -> otopark -->
      <flow id="1002647"
            departLane="allowed" departSpeed="desired" departPos="last"
            arrivalLane="0" arrivalSpeed="0.0" arrivalPos="random" 
            from="28585046#6" to="24826715#4"
            begin="36" end="46" number="1" />
    

      <!-- otopark -> yenikapi -->
      <flow id="1006999"
            departLane="allowed" departSpeed="desired" departPos="last"
            from="229363521#3" to="83477315"
            begin="36" end="46" number="1" />
    

      <!-- otopark -> kasimpasa_kabatas -->
      <flow id="1003498"
            departLane="allowed" departSpeed="desired" departPos="last"
            from="290731792#3" to="23639745#2"
            begin="37" end="47" number="1" />
    

      <!-- yenikapi -> otopark -->
      <flow id="1006561"
            departLane="allowed" departSpeed="desired" departPos="last"
            arrivalLane="0" arrivalSpeed="0.0" arrivalPos="random" 
            from="561590398#0" to="432870062#2"
            begin="37" end="47" number="1" />
    

      <!-- fener -> otopark -->
      <flow id="1000769"
            departLane="allowed" departSpeed="desired" departPos="last"
            arrivalLane="0" arrivalSpeed="0.0" arrivalPos="random" 
            from="329581607#1" to="695775279#2"
            begin="39" end="49" number="1" />
    

      <!-- kasimpasa_kabatas -> otopark -->
      <flow id="1002683"
            departLane="allowed" departSpeed="desired" departPos="last"
            arrivalLane="0" arrivalSpeed="0.0" arrivalPos="random" 
            from="28585046#6" to="695775279#2"
            begin="39" end="49" number="1" />
    

      <!-- otopark -> ibb -->
      <flow id="1011087"
            departLane="allowed" departSpeed="desired" departPos="last"
            from="24806073#8" to="1101578763#3"
            begin="39" end="49" number="1" />
    

      <!-- otopark -> fener -->
      <flow id="1001642"
            departLane="allowed" departSpeed="desired" departPos="last"
            from="gneE6" to="329581449#3"
            begin="40" end="50" number="1" />
    

      <!-- otopark -> kasimpasa_kabatas -->
      <flow id="1003218"
            departLane="allowed" departSpeed="desired" departPos="last"
            from="303876068#1" to="23639745#2"
            begin="40" end="50" number="1" />
    

      <!-- yenikapi -> otopark -->
      <flow id="1005002"
            departLane="allowed" departSpeed="desired" departPos="last"
            arrivalLane="0" arrivalSpeed="0.0" arrivalPos="random" 
            from="561590398#0" to="290731792#3"
            begin="40" end="50" number="1" />
    

      <!-- yenikapi -> otopark -->
      <flow id="1005313"
            departLane="allowed" departSpeed="desired" departPos="last"
            arrivalLane="0" arrivalSpeed="0.0" arrivalPos="random" 
            from="561590398#0" to="-gneE1"
            begin="40" end="50" number="1" />
    

      <!-- yenikapi -> otopark -->
      <flow id="1006611"
            departLane="allowed" departSpeed="desired" departPos="last"
            arrivalLane="0" arrivalSpeed="0.0" arrivalPos="random" 
            from="561590398#0" to="432870062#2"
            begin="40" end="50" number="1" />
    

      <!-- yenikapi -> otopark -->
      <flow id="1006928"
            departLane="allowed" departSpeed="desired" departPos="last"
            arrivalLane="0" arrivalSpeed="0.0" arrivalPos="random" 
            from="561590398#0" to="1144466566#0"
            begin="40" end="50" number="1" />
    

      <!-- ibb -> otopark -->
      <flow id="1010260"
            departLane="allowed" departSpeed="desired" departPos="last"